@<TRIPOS>MOLECULE
ZINC03814383
   53    56     0     0     0
SMALL
USER_CHARGES

@<TRIPOS>ATOM
      1 C1         -2.2176    2.2641    1.2286 C.3       1 <0>        -0.1982
      2 C2         -0.7281    2.0356    1.2402 C.2       1 <0>         0.3622
      3 O1         -0.0910    2.2576    2.2418 O.2       1 <0>        -0.4541
      4 C3         -0.0337    1.5299    0.0020 C.3       1 <0>        -0.1244
      5 H1         -0.4737    1.9167   -0.8084 H         1 <0>         0.0891
      6 C4          1.4696    1.9020    0.0399 C.3       1 <0>        -0.1196
      7 C5          2.2545    0.5665   -0.0714 C.3       1 <0>        -0.1143
      8 C6          1.2520   -0.3645   -0.7629 C.3       1 <0>        -0.0791
      9 H2          1.1801   -0.1401   -1.8271 H         1 <0>         0.0792
     10 C7         -0.0706    0.0058   -0.0395 C.3       1 <0>        -0.0499
     11 C8         -1.2029   -0.6226   -0.8290 C.3       1 <0>        -0.1054
     12 C9         -1.0332   -2.1469   -0.7280 C.3       1 <0>        -0.1225
     13 C10         0.3299   -2.5982   -1.2435 C.3       1 <0>        -0.0661
     14 H3          0.3863   -2.4038   -2.3145 H         1 <0>         0.0716
     15 C11         1.4785   -1.8504   -0.5509 C.3       1 <0>        -0.0788
     16 H4          1.4886   -2.0867    0.5131 H         1 <0>         0.0880
     17 C12         2.8054   -2.2675   -1.1918 C.3       1 <0>        -0.1134
     18 C13         3.0538   -3.7520   -0.9151 C.3       1 <0>        -0.0975
     19 C14         1.8581   -4.5461   -1.4089 C.2       1 <0>        -0.0168
     20 C15         2.0927   -5.6150   -2.1691 C.2       1 <0>        -0.2433
     21 C16         0.9750   -6.4391   -2.6420 C.2       1 <0>         0.3868
     22 O2          1.0826   -7.1687   -3.6054 O.2       1 <0>        -0.4573
     23 C17        -0.3218   -6.3309   -1.8640 C.3       1 <0>        -0.1590
     24 C18        -0.6375   -4.8442   -1.7050 C.3       1 <0>        -0.1053
     25 C19         0.4861   -4.1046   -1.0011 C.3       1 <0>        -0.0285
     26 C20         0.3328   -4.3592    0.4998 C.3       1 <0>        -0.1509
     27 C21        -0.0603   -0.5520    1.3851 C.3       1 <0>        -0.1572
     28 H5         -2.5834    2.0320    0.3273 H         1 <0>         0.0725
     29 H6         -2.6877    1.6350    1.9845 H         1 <0>         0.0909
     30 H7         -2.4263    3.3115    1.4466 H         1 <0>         0.0917
     31 H8          1.7155    2.5516   -0.8001 H         1 <0>         0.0678
     32 H9          1.7084    2.3990    0.9802 H         1 <0>         0.0799
     33 H10         2.5137    0.1879    0.9173 H         1 <0>         0.0704
     34 H11         3.1489    0.6914   -0.6817 H         1 <0>         0.0679
     35 H12        -2.1616   -0.3266   -0.4033 H         1 <0>         0.0666
     36 H13        -1.1463   -0.3109   -1.8719 H         1 <0>         0.0679
     37 H14        -1.1365   -2.4478    0.3146 H         1 <0>         0.0750
     38 H15        -1.8135   -2.6311   -1.3153 H         1 <0>         0.0667
     39 H16         3.6167   -1.6770   -0.7662 H         1 <0>         0.0722
     40 H17         2.7582   -2.1007   -2.2679 H         1 <0>         0.0658
     41 H18         3.1792   -3.9082    0.1563 H         1 <0>         0.0843
     42 H19         3.9517   -4.0788   -1.4397 H         1 <0>         0.0775
     43 H20         3.1061   -5.8745   -2.4375 H         1 <0>         0.1336
     44 H21        -1.0515   -6.7950   -2.3662 H         1 <0>         0.0828
     45 H22        -0.2052   -6.7928   -0.8836 H         1 <0>         0.0989
     46 H23        -1.5535   -4.7353   -1.1242 H         1 <0>         0.0838
     47 H24        -0.7890   -4.4053   -2.6912 H         1 <0>         0.0691
     48 H25        -0.6520   -4.0251    0.8263 H         1 <0>         0.0694
     49 H26         0.4398   -5.4253    0.7003 H         1 <0>         0.0588
     50 H27         1.1015   -3.8086    1.0421 H         1 <0>         0.0637
     51 H28        -0.9848   -0.2737    1.8910 H         1 <0>         0.0509
     52 H29         0.0215   -1.6383    1.3494 H         1 <0>         0.0720
     53 H30         0.7899   -0.1414    1.9299 H         1 <0>         0.0646
@<TRIPOS>BOND
     1    1    2 1
     2    1   28 1
     3    1   29 1
     4    1   30 1
     5    2    3 2
     6    2    4 1
     7    4    5 1
     8    4   10 1
     9    4    6 1
    10    6    7 1
    11    6   31 1
    12    6   32 1
    13    7    8 1
    14    7   33 1
    15    7   34 1
    16    8    9 1
    17    8   15 1
    18    8   10 1
    19   10   11 1
    20   10   27 1
    21   11   12 1
    22   11   35 1
    23   11   36 1
    24   12   13 1
    25   12   37 1
    26   12   38 1
    27   13   14 1
    28   13   25 1
    29   13   15 1
    30   15   16 1
    31   15   17 1
    32   17   18 1
    33   17   39 1
    34   17   40 1
    35   18   19 1
    36   18   41 1
    37   18   42 1
    38   19   25 1
    39   19   20 2
    40   20   21 1
    41   20   43 1
    42   21   22 2
    43   21   23 1
    44   23   24 1
    45   23   44 1
    46   23   45 1
    47   24   25 1
    48   24   46 1
    49   24   47 1
    50   25   26 1
    51   26   48 1
    52   26   49 1
    53   26   50 1
    54   27   51 1
    55   27   52 1
    56   27   53 1
@<TRIPOS>MOLECULE
ZINC03831941
   58    61     0     0     0
SMALL
USER_CHARGES

@<TRIPOS>ATOM
      1 C1         -5.7093   -1.0506    1.4154 C.3       1 <0>        -0.1116
      2 C2         -4.2560   -0.7630    1.6913 C.2       1 <0>        -0.1872
      3 C3         -3.4522   -0.3782    0.6988 C.2       1 <0>         0.1130
      4 C4         -3.9573   -0.1022   -0.6810 C.2       1 <0>        -0.1534
      5 C5         -5.1283    0.5223   -0.9190 C.2       1 <0>         0.0796
      6 O1         -5.5768    0.6585   -2.1887 O.3       1 <0>        -0.3108
      7 C6         -6.8251    1.3308   -2.3672 C.3       1 <0>         0.0211
      8 C7         -3.0576   -0.5760   -1.7724 C.ar      1 <0>        -0.0589
      9 C8         -3.5265   -0.6733   -3.0788 C.ar      1 <0>        -0.0627
     10 C9         -2.6869   -1.1094   -4.0866 C.ar      1 <0>        -0.1700
     11 C10        -1.3789   -1.4475   -3.7861 C.ar      1 <0>         0.2130
     12 C11        -0.9036   -1.3548   -2.4687 C.ar      1 <0>        -0.1030
     13 C12        -1.7482   -0.9124   -1.4478 C.ar      1 <0>        -0.0756
     14 C13        -1.2205   -0.8245   -0.0471 C.3       1 <0>         0.1810
     15 H1         -1.0042   -1.8330    0.3055 H         1 <0>         0.1059
     16 O2         -2.1087   -0.2082    0.8689 O.3       1 <0>        -0.3168
     17 C14         0.0660   -0.0400   -0.0683 C.ar      1 <0>        -0.0553
     18 C15         0.4535    0.6214   -1.2189 C.ar      1 <0>        -0.0773
     19 C16         1.6331    1.3413   -1.2382 C.ar      1 <0>        -0.1153
     20 C17         2.4267    1.3985   -0.1075 C.ar      1 <0>        -0.0708
     21 C18         2.0389    0.7380    1.0431 C.ar      1 <0>        -0.1843
     22 C19         0.8584    0.0186    1.0627 C.ar      1 <0>        -0.0646
     23 C20         2.9031    0.8016    2.2760 C.3       1 <0>         0.5094
     24 F1          3.8198   -0.2551    2.2580 F         1 <0>        -0.1763
     25 F2          3.5939    2.0179    2.2991 F         1 <0>        -0.1765
     26 F3          2.0979    0.7010    3.4156 F         1 <0>        -0.1754
     27 C21         0.4959   -1.7352   -2.1897 C.2       1 <0>        -0.0522
     28 C22         1.3567   -1.8511   -3.1930 C.2       1 <0>        -0.1718
     29 C23         0.9350   -1.5862   -4.6137 C.3       1 <0>         0.2164
     30 N1         -0.4938   -1.8836   -4.7763 N.pl3     1 <0>        -0.7426
     31 C24         1.1897   -0.1163   -4.9534 C.3       1 <0>        -0.1583
     32 C25         1.7472   -2.4740   -5.5586 C.3       1 <0>        -0.1526
     33 C26         0.9438   -1.9906   -0.7737 C.3       1 <0>        -0.1816
     34 H2         -5.8100   -1.4963    0.4258 H         1 <0>         0.0660
     35 H3         -6.0917   -1.7424    2.1660 H         1 <0>         0.0695
     36 H4         -6.2775   -0.1213    1.4549 H         1 <0>         0.0614
     37 H5         -3.8652   -0.8685    2.6926 H         1 <0>         0.1260
     38 H6         -5.7084    0.9139   -0.0965 H         1 <0>         0.1359
     39 H7         -7.6084    0.7897   -1.8363 H         1 <0>         0.0569
     40 H8         -6.7518    2.3440   -1.9722 H         1 <0>         0.0560
     41 H9         -7.0673    1.3714   -3.4291 H         1 <0>         0.1007
     42 H10        -4.5485   -0.4080   -3.3058 H         1 <0>         0.1489
     43 H11        -3.0491   -1.1860   -5.1011 H         1 <0>         0.1266
     44 H12        -0.1635    0.5718   -2.1039 H         1 <0>         0.1417
     45 H13         1.9358    1.8580   -2.1370 H         1 <0>         0.1352
     46 H14         3.3488    1.9604   -0.1228 H         1 <0>         0.1368
     47 H15         0.5555   -0.4977    1.9616 H         1 <0>         0.1415
     48 H16         2.3766   -2.1407   -2.9870 H         1 <0>         0.1219
     49 H17        -0.8153   -2.3706   -5.5512 H         1 <0>         0.4025
     50 H18         2.2514    0.1037   -4.8418 H         1 <0>         0.0660
     51 H19         0.8847    0.0771   -5.9819 H         1 <0>         0.0600
     52 H20         0.6144    0.5176   -4.2786 H         1 <0>         0.0560
     53 H21         1.5695   -3.5215   -5.3154 H         1 <0>         0.0629
     54 H22         1.4429   -2.2832   -6.5878 H         1 <0>         0.0630
     55 H23         2.8079   -2.2497   -5.4459 H         1 <0>         0.0738
     56 H24         0.0844   -2.2745   -0.1664 H         1 <0>         0.0838
     57 H25         1.6774   -2.7968   -0.7645 H         1 <0>         0.0638
     58 H26         1.3937   -1.0853   -0.3660 H         1 <0>         0.1087
@<TRIPOS>BOND
     1    1    2 1
     2    1   34 1
     3    1   35 1
     4    1   36 1
     5    2    3 2
     6    2   37 1
     7    3   16 1
     8    3    4 1
     9    4    5 2
    10    4    8 1
    11    5    6 1
    12    5   38 1
    13    6    7 1
    14    7   39 1
    15    7   40 1
    16    7   41 1
    17    8   13 ar
    18    8    9 ar
    19    9   10 ar
    20    9   42 1
    21   10   11 ar
    22   10   43 1
    23   11   30 1
    24   11   12 ar
    25   12   13 ar
    26   12   27 1
    27   13   14 1
    28   14   15 1
    29   14   16 1
    30   14   17 1
    31   17   22 ar
    32   17   18 ar
    33   18   19 ar
    34   18   44 1
    35   19   20 ar
    36   19   45 1
    37   20   21 ar
    38   20   46 1
    39   21   22 ar
    40   21   23 1
    41   22   47 1
    42   23   24 1
    43   23   25 1
    44   23   26 1
    45   27   28 2
    46   27   33 1
    47   28   29 1
    48   28   48 1
    49   29   30 1
    50   29   31 1
    51   29   32 1
    52   30   49 1
    53   31   50 1
    54   31   51 1
    55   31   52 1
    56   32   53 1
    57   32   54 1
    58   32   55 1
    59   33   56 1
    60   33   57 1
    61   33   58 1
@<TRIPOS>MOLECULE
ZINC03833819
   57    60     0     0     0
SMALL
USER_CHARGES

@<TRIPOS>ATOM
      1 C1          5.6316    1.4186   -4.5079 C.3       1 <0>        -0.1486
      2 C2          5.5905    1.3647   -2.9794 C.3       1 <0>        -0.1640
      3 C3          4.2594    0.8180   -2.5317 C.2       1 <0>         0.3345
      4 O1          3.4293    0.5039   -3.3506 O.2       1 <0>        -0.4352
      5 C4          3.9643    0.6632   -1.0620 C.3       1 <0>         0.0982
      6 C5          2.9421   -0.4787   -0.8349 C.3       1 <0>        -0.1442
      7 C6          1.6666    0.1854   -0.2480 C.3       1 <0>        -0.1087
      8 C7          1.7575    1.6316   -0.7516 C.3       1 <0>        -0.0815
      9 H1          1.4816    1.7181   -1.8026 H         1 <0>         0.0848
     10 C8          3.2898    1.9194   -0.5235 C.3       1 <0>        -0.0393
     11 C9          3.6221    3.2249   -1.2150 C.3       1 <0>        -0.1453
     12 C10         2.8264    4.3406   -0.5113 C.3       1 <0>         0.1155
     13 H2          3.0124    5.2881   -1.0170 H         1 <0>         0.0645
     14 C11         1.3345    4.0399   -0.5430 C.3       1 <0>        -0.0546
     15 H3          1.0009    4.0377   -1.5807 H         1 <0>         0.0849
     16 C12         1.0261    2.6685    0.0744 C.3       1 <0>        -0.0599
     17 H4          1.4254    2.6410    1.0883 H         1 <0>         0.1195
     18 C13        -0.4472    2.4225    0.1279 C.2       1 <0>        -0.1094
     19 C14        -1.3463    3.4047    0.1215 C.2       1 <0>        -0.1134
     20 C15        -0.9137    4.8066    0.0491 C.2       1 <0>         0.0092
     21 C16        -1.8202    5.7708   -0.2098 C.2       1 <0>        -0.2260
     22 C17        -1.3838    7.1485   -0.4355 C.2       1 <0>         0.4069
     23 O2         -2.1982    8.0423   -0.5835 O.2       1 <0>        -0.4605
     24 C18         0.0614    7.4329   -0.4807 C.2       1 <0>        -0.2180
     25 C19         0.9340    6.4815   -0.1873 C.2       1 <0>        -0.0636
     26 C20         0.5501    5.1031    0.2192 C.3       1 <0>        -0.0065
     27 C21         0.8877    4.9579    1.7044 C.3       1 <0>        -0.1422
     28 C22        -2.8153    3.0766    0.1944 C.3       1 <0>        -0.1164
     29 O3          3.2577    4.4399    0.8475 O.3       1 <0>        -0.5457
     30 C23         3.5663    2.0479    0.9758 C.3       1 <0>        -0.1431
     31 O4          5.1694    0.4000   -0.3406 O.3       1 <0>        -0.5356
     32 H5          5.4971    0.4147   -4.9107 H         1 <0>         0.0602
     33 H6          4.8326    2.0655   -4.8703 H         1 <0>         0.0596
     34 H7          6.5943    1.8140   -4.8318 H         1 <0>         0.0636
     35 H8          5.7140    2.2857   -2.6100 H         1 <0>         0.0903
     36 H9          6.3894    0.7177   -2.6171 H         1 <0>         0.0988
     37 H10         2.7086   -0.9655   -1.7817 H         1 <0>         0.0801
     38 H11         3.3440   -1.2055   -0.1290 H         1 <0>         0.0802
     39 H12         0.7683   -0.2879   -0.6445 H         1 <0>         0.0698
     40 H13         1.6767    0.1442    0.8412 H         1 <0>         0.0768
     41 H14         3.3340    3.1711   -2.2649 H         1 <0>         0.0713
     42 H15         4.6905    3.4256   -1.1347 H         1 <0>         0.0784
     43 H16        -0.7985    1.4021    0.1690 H         1 <0>         0.1197
     44 H17        -2.8711    5.5251   -0.2510 H         1 <0>         0.1396
     45 H18         0.4091    8.4185   -0.7532 H         1 <0>         0.1388
     46 H19         1.9857    6.7200   -0.2465 H         1 <0>         0.1282
     47 H20         1.9178    5.2704    1.8751 H         1 <0>         0.1023
     48 H21         0.2160    5.5832    2.2925 H         1 <0>         0.0493
     49 H22         0.7697    3.9164    2.0036 H         1 <0>         0.0679
     50 H23        -2.9440    1.9955    0.2461 H         1 <0>         0.0681
     51 H24        -3.2467    3.5368    1.0834 H         1 <0>         0.0698
     52 H25        -3.3178    3.4603   -0.6935 H         1 <0>         0.0698
     53 H26         4.2003    4.6306    0.9480 H         1 <0>         0.3745
     54 H27         2.8620    2.7537    1.4160 H         1 <0>         0.1044
     55 H28         3.4501    1.0741    1.4514 H         1 <0>         0.0475
     56 H29         4.5840    2.4074    1.1281 H         1 <0>         0.0572
     57 H30         5.6425   -0.3885   -0.6396 H         1 <0>         0.3774
@<TRIPOS>BOND
     1    1    2 1
     2    1   32 1
     3    1   33 1
     4    1   34 1
     5    2    3 1
     6    2   35 1
     7    2   36 1
     8    3    4 2
     9    3    5 1
    10    5   10 1
    11    5    6 1
    12    5   31 1
    13    6    7 1
    14    6   37 1
    15    6   38 1
    16    7    8 1
    17    7   39 1
    18    7   40 1
    19    8    9 1
    20    8   16 1
    21    8   10 1
    22   10   11 1
    23   10   30 1
    24   11   12 1
    25   11   41 1
    26   11   42 1
    27   12   13 1
    28   12   14 1
    29   12   29 1
    30   14   15 1
    31   14   26 1
    32   14   16 1
    33   16   17 1
    34   16   18 1
    35   18   19 2
    36   18   43 1
    37   19   20 1
    38   19   28 1
    39   20   26 1
    40   20   21 2
    41   21   22 1
    42   21   44 1
    43   22   23 2
    44   22   24 1
    45   24   25 2
    46   24   45 1
    47   25   26 1
    48   25   46 1
    49   26   27 1
    50   27   47 1
    51   27   48 1
    52   27   49 1
    53   28   50 1
    54   28   51 1
    55   28   52 1
    56   29   53 1
    57   30   54 1
    58   30   55 1
    59   30   56 1
    60   31   57 1
@<TRIPOS>MOLECULE
ZINC03833820
   59    62     0     0     0
SMALL
USER_CHARGES

@<TRIPOS>ATOM
      1 C1          6.2784   -1.8148    1.5566 C.3       1 <0>        -0.1484
      2 C2          5.0839   -0.9746    2.0128 C.3       1 <0>        -0.1630
      3 C3          5.4374    0.4879    1.9295 C.2       1 <0>         0.3372
      4 O1          6.5318    0.8236    1.5449 O.2       1 <0>        -0.4342
      5 C4          4.4252    1.5316    2.3261 C.3       1 <0>         0.1051
      6 C5          5.1396    2.8424    2.7393 C.3       1 <0>        -0.1183
      7 H1          6.2159    2.7421    2.5992 H         1 <0>         0.0912
      8 C6          4.5828    3.9562    1.8111 C.3       1 <0>        -0.1071
      9 C7          3.2192    3.3994    1.3867 C.3       1 <0>        -0.0808
     10 H2          2.4912    3.4930    2.1925 H         1 <0>         0.0950
     11 C8          3.5557    1.9058    1.1302 C.3       1 <0>        -0.0431
     12 C9          2.2382    1.1669    0.9945 C.3       1 <0>        -0.1251
     13 C10         1.5427    1.7079   -0.2647 C.3       1 <0>         0.0795
     14 H3          2.1558    1.4762   -1.1356 H         1 <0>         0.0799
     15 C11         1.3353    3.2174   -0.1894 C.3       1 <0>         0.1635
     16 C12         2.6512    3.9588    0.0950 C.3       1 <0>        -0.1019
     17 H4          3.3481    3.7999   -0.7279 H         1 <0>         0.1043
     18 C13         2.3732    5.4548    0.2541 C.3       1 <0>        -0.1147
     19 C14         1.8387    6.0231   -1.0644 C.3       1 <0>        -0.0956
     20 C15         0.6240    5.2098   -1.4707 C.2       1 <0>        -0.0381
     21 C16        -0.5024    5.8424   -1.7684 C.2       1 <0>        -0.2137
     22 C17        -1.7068    5.0869   -2.1465 C.2       1 <0>         0.4063
     23 O2         -2.7315    5.6648   -2.4579 O.2       1 <0>        -0.4600
     24 C18        -1.6446    3.6156   -2.1393 C.2       1 <0>        -0.2238
     25 C19        -0.5073    3.0054   -1.8453 C.2       1 <0>        -0.0618
     26 C20         0.7607    3.7167   -1.5185 C.3       1 <0>        -0.0340
     27 C21         1.7666    3.3740   -2.6193 C.3       1 <0>        -0.1478
     28 F1          0.4160    3.5058    0.8250 F         1 <0>        -0.1875
     29 O3          0.2721    1.0693   -0.4062 O.3       1 <0>        -0.5487
     30 C22         4.3647    1.7709   -0.1614 C.3       1 <0>        -0.1659
     31 C23         4.8292    3.1714    4.2009 C.3       1 <0>        -0.1439
     32 O4          3.6120    1.0516    3.3986 O.3       1 <0>        -0.5327
     33 H5          6.5299   -1.5599    0.5271 H         1 <0>         0.0603
     34 H6          7.1335   -1.6105    2.2008 H         1 <0>         0.0603
     35 H7          6.0227   -2.8727    1.6168 H         1 <0>         0.0637
     36 H8          4.8532   -1.2085    2.9573 H         1 <0>         0.0904
     37 H9          4.2287   -1.1790    1.3685 H         1 <0>         0.0981
     38 H10         5.2293    4.0951    0.9446 H         1 <0>         0.0743
     39 H11         4.4641    4.8911    2.3588 H         1 <0>         0.0767
     40 H12         1.6167    1.3520    1.8706 H         1 <0>         0.0933
     41 H13         2.4214    0.0977    0.8873 H         1 <0>         0.0747
     42 H14         1.6332    5.6046    1.0402 H         1 <0>         0.0772
     43 H15         3.2963    5.9688    0.5222 H         1 <0>         0.0830
     44 H16         1.5540    7.0662   -0.9270 H         1 <0>         0.0858
     45 H17         2.6059    5.9488   -1.8351 H         1 <0>         0.0871
     46 H18        -0.5361    6.9213   -1.7334 H         1 <0>         0.1380
     47 H19        -2.5252    3.0356   -2.3730 H         1 <0>         0.1386
     48 H20        -0.4976    1.9254   -1.8428 H         1 <0>         0.1568
     49 H21         1.9152    2.2947   -2.6525 H         1 <0>         0.0731
     50 H22         1.3847    3.7180   -3.5804 H         1 <0>         0.0731
     51 H23         2.7167    3.8652   -2.4090 H         1 <0>         0.0741
     52 H24         0.3205    0.1051   -0.4611 H         1 <0>         0.3812
     53 H25         5.2884    2.3428   -0.0731 H         1 <0>         0.0744
     54 H26         4.6023    0.7211   -0.3333 H         1 <0>         0.0598
     55 H27         3.7796    2.1526   -0.9982 H         1 <0>         0.0734
     56 H28         5.1767    2.3582    4.8381 H         1 <0>         0.0518
     57 H29         5.3363    4.0947    4.4812 H         1 <0>         0.0612
     58 H30         3.7534    3.2957    4.3248 H         1 <0>         0.0682
     59 H31         4.1107    0.7980    4.1873 H         1 <0>         0.3791
@<TRIPOS>BOND
     1    1    2 1
     2    1   33 1
     3    1   34 1
     4    1   35 1
     5    2    3 1
     6    2   36 1
     7    2   37 1
     8    3    4 2
     9    3    5 1
    10    5   11 1
    11    5    6 1
    12    5   32 1
    13    6    7 1
    14    6    8 1
    15    6   31 1
    16    8    9 1
    17    8   38 1
    18    8   39 1
    19    9   10 1
    20    9   16 1
    21    9   11 1
    22   11   12 1
    23   11   30 1
    24   12   13 1
    25   12   40 1
    26   12   41 1
    27   13   14 1
    28   13   15 1
    29   13   29 1
    30   15   26 1
    31   15   16 1
    32   15   28 1
    33   16   17 1
    34   16   18 1
    35   18   19 1
    36   18   42 1
    37   18   43 1
    38   19   20 1
    39   19   44 1
    40   19   45 1
    41   20   26 1
    42   20   21 2
    43   21   22 1
    44   21   46 1
    45   22   23 2
    46   22   24 1
    47   24   25 2
    48   24   47 1
    49   25   26 1
    50   25   48 1
    51   26   27 1
    52   27   49 1
    53   27   50 1
    54   27   51 1
    55   29   52 1
    56   30   53 1
    57   30   54 1
    58   30   55 1
    59   31   56 1
    60   31   57 1
    61   31   58 1
    62   32   59 1
@<TRIPOS>MOLECULE
ZINC03833821
   54    57     0     0     0
SMALL
USER_CHARGES

@<TRIPOS>ATOM
      1 C1          3.6742   -2.2197    0.1918 C.3       1 <0>        -0.1682
      2 C2          3.1296   -2.0875    1.6154 C.3       1 <0>        -0.0400
      3 C3          1.7192   -2.6413    1.6796 C.3       1 <0>        -0.1265
      4 C4          0.8980   -1.9191    0.5999 C.3       1 <0>         0.1072
      5 H1         -0.1329   -2.2702    0.6432 H         1 <0>         0.0599
      6 C5          0.9167   -0.4057    0.7942 C.3       1 <0>        -0.0514
      7 H2          0.3983   -0.1561    1.7200 H         1 <0>         0.0866
      8 C6          2.3588    0.1217    0.8637 C.3       1 <0>        -0.0813
      9 H3          2.8716   -0.0852   -0.0756 H         1 <0>         0.1040
     10 C7          3.0507   -0.5886    2.0116 C.3       1 <0>        -0.0787
     11 H4          2.5022   -0.4699    2.9460 H         1 <0>         0.0848
     12 C8          4.5302   -0.2423    2.2136 C.3       1 <0>        -0.1117
     13 C9          5.0797   -1.4873    2.9620 C.3       1 <0>        -0.1478
     14 C10         4.1319   -2.6614    2.6115 C.3       1 <0>         0.1037
     15 C11         4.9082   -3.7885    1.9804 C.2       1 <0>         0.3340
     16 O1          5.9649   -3.5655    1.4401 O.2       1 <0>        -0.4129
     17 C12         4.3656   -5.1938    2.0235 C.3       1 <0>         0.0401
     18 O2          5.2755   -6.0761    1.3634 O.3       1 <0>        -0.5569
     19 O3          3.4569   -3.1199    3.7846 O.3       1 <0>        -0.5394
     20 C13         2.3404    1.6261    1.1416 C.3       1 <0>        -0.1145
     21 C14         1.6796    2.3566   -0.0318 C.3       1 <0>        -0.0952
     22 C15         0.3045    1.7540   -0.2504 C.2       1 <0>        -0.0251
     23 C16        -0.7466    2.5607   -0.3065 C.2       1 <0>        -0.2320
     24 C17        -2.1005    2.0141   -0.4847 C.2       1 <0>         0.4075
     25 O4         -3.0630    2.7531   -0.5761 O.2       1 <0>        -0.4611
     26 C18        -2.2648    0.5521   -0.5495 C.2       1 <0>        -0.2211
     27 C19        -1.2009   -0.2339   -0.4967 C.2       1 <0>        -0.0640
     28 C20         0.1992    0.2637   -0.3817 C.3       1 <0>        -0.0095
     29 C21         0.9276   -0.1444   -1.6638 C.3       1 <0>        -0.1320
     30 O5          1.4409   -2.2306   -0.6847 O.3       1 <0>        -0.5461
     31 H5          3.1360   -1.5390   -0.4678 H         1 <0>         0.1162
     32 H6          4.7352   -1.9702    0.1840 H         1 <0>         0.0529
     33 H7          3.5393   -3.2442   -0.1551 H         1 <0>         0.0499
     34 H8          1.2896   -2.4498    2.6629 H         1 <0>         0.0850
     35 H9          1.7319   -3.7131    1.4813 H         1 <0>         0.0676
     36 H10         5.0314   -0.1168    1.2539 H         1 <0>         0.0738
     37 H11         4.6365    0.6535    2.8255 H         1 <0>         0.0727
     38 H12         6.0919   -1.7101    2.6245 H         1 <0>         0.0848
     39 H13         5.0740   -1.3101    4.0375 H         1 <0>         0.0803
     40 H14         4.2556   -5.4796    2.9755 H         1 <0>         0.0727
     41 H15         3.3991   -5.2257    1.5206 H         1 <0>         0.0794
     42 H16         4.9897   -6.9998    1.3528 H         1 <0>         0.3865
     43 H17         4.0441   -3.4958    4.4547 H         1 <0>         0.3800
     44 H18         1.7762    1.8198    2.0539 H         1 <0>         0.0670
     45 H19         3.3622    1.9853    1.2638 H         1 <0>         0.0752
     46 H20         2.2835    2.2307   -0.9304 H         1 <0>         0.0858
     47 H21         1.5836    3.4169    0.2021 H         1 <0>         0.0798
     48 H22        -0.6073    3.6283   -0.2209 H         1 <0>         0.1354
     49 H23        -3.2513    0.1219   -0.6396 H         1 <0>         0.1373
     50 H24        -1.3571   -1.3017   -0.5399 H         1 <0>         0.1254
     51 H25         2.0029   -0.1481   -1.4853 H         1 <0>         0.0741
     52 H26         0.6055   -1.1418   -1.9630 H         1 <0>         0.0935
     53 H27         0.6934    0.5661   -2.4566 H         1 <0>         0.0439
     54 H28         1.4632   -3.1767   -0.8834 H         1 <0>         0.3684
@<TRIPOS>BOND
     1    1    2 1
     2    1   31 1
     3    1   32 1
     4    1   33 1
     5    2   10 1
     6    2   14 1
     7    2    3 1
     8    3    4 1
     9    3   34 1
    10    3   35 1
    11    4    5 1
    12    4    6 1
    13    4   30 1
    14    6    7 1
    15    6   28 1
    16    6    8 1
    17    8    9 1
    18    8   10 1
    19    8   20 1
    20   10   11 1
    21   10   12 1
    22   12   13 1
    23   12   36 1
    24   12   37 1
    25   13   14 1
    26   13   38 1
    27   13   39 1
    28   14   15 1
    29   14   19 1
    30   15   16 2
    31   15   17 1
    32   17   18 1
    33   17   40 1
    34   17   41 1
    35   18   42 1
    36   19   43 1
    37   20   21 1
    38   20   44 1
    39   20   45 1
    40   21   22 1
    41   21   46 1
    42   21   47 1
    43   22   28 1
    44   22   23 2
    45   23   24 1
    46   23   48 1
    47   24   25 2
    48   24   26 1
    49   26   27 2
    50   26   49 1
    51   27   28 1
    52   27   50 1
    53   28   29 1
    54   29   51 1
    55   29   52 1
    56   29   53 1
    57   30   54 1
@<TRIPOS>MOLECULE
ZINC03833822
   56    59     0     0     0
SMALL
USER_CHARGES

@<TRIPOS>ATOM
      1 C1         -0.9905   -2.7188   -0.0223 C.3       1 <0>        -0.1509
      2 C2         -1.6780   -2.6584    1.3431 C.3       1 <0>        -0.0300
      3 C3         -1.1056   -3.8072    2.1370 C.3       1 <0>        -0.1048
      4 C4         -2.1160   -4.3672    3.1374 C.3       1 <0>        -0.1622
      5 C5         -3.3708   -4.7324    2.3667 C.2       1 <0>         0.3894
      6 O1         -3.8772   -5.8321    2.4466 O.2       1 <0>        -0.4569
      7 C6         -3.9366   -3.6744    1.5177 C.2       1 <0>        -0.2447
      8 C7         -3.1357   -2.7145    1.0634 C.2       1 <0>        -0.0185
      9 C8         -3.7317   -1.5985    0.2221 C.3       1 <0>        -0.0961
     10 C9         -3.3264   -0.2663    0.8634 C.3       1 <0>        -0.1119
     11 C10        -1.8058   -0.1952    1.0037 C.3       1 <0>        -0.0835
     12 H1         -1.3417   -0.3172    0.0250 H         1 <0>         0.1017
     13 C11        -1.3141   -1.3032    1.9507 C.3       1 <0>        -0.0557
     14 H2         -1.8206   -1.2061    2.9110 H         1 <0>         0.0823
     15 C12         0.1939   -1.2290    2.1676 C.3       1 <0>         0.1080
     16 H3          0.4818   -1.9698    2.9135 H         1 <0>         0.0622
     17 C13         0.6296    0.1639    2.6499 C.3       1 <0>        -0.1266
     18 C14         0.1648    1.1645    1.6094 C.3       1 <0>        -0.0383
     19 C15        -1.3875    1.1339    1.6042 C.3       1 <0>        -0.0778
     20 H4         -1.7740    1.2319    2.6187 H         1 <0>         0.0825
     21 C16        -1.7195    2.3744    0.7673 C.3       1 <0>        -0.1117
     22 C17        -0.7026    3.4271    1.2867 C.3       1 <0>        -0.1471
     23 C18         0.4890    2.6297    1.8815 C.3       1 <0>         0.1033
     24 C19         1.7740    3.0162    1.1956 C.2       1 <0>         0.3345
     25 O2          1.7456    3.5095    0.0937 O.2       1 <0>        -0.4133
     26 C20         3.0945    2.7870    1.8847 C.3       1 <0>         0.0402
     27 O3          4.1568    3.2318    1.0387 O.3       1 <0>        -0.5569
     28 O4          0.5883    2.8618    3.2880 O.3       1 <0>        -0.5392
     29 C21         0.6957    0.7635    0.2316 C.3       1 <0>        -0.1659
     30 O5          0.8572   -1.5248    0.9369 O.3       1 <0>        -0.5444
     31 H5          0.0622   -2.9678    0.1116 H         1 <0>         0.0945
     32 H6         -1.4689   -3.4817   -0.6365 H         1 <0>         0.0395
     33 H7         -1.0750   -1.7502   -0.5149 H         1 <0>         0.0664
     34 H8         -0.2251   -3.4633    2.6798 H         1 <0>         0.0849
     35 H9         -0.8094   -4.6019    1.4523 H         1 <0>         0.0728
     36 H10        -2.3178   -3.6749    3.8303 H         1 <0>         0.0886
     37 H11        -1.7064   -5.2550    3.6191 H         1 <0>         0.0895
     38 H12        -4.9871   -3.6760    1.2669 H         1 <0>         0.1350
     39 H13        -4.8181   -1.6865    0.2074 H         1 <0>         0.0778
     40 H14        -3.3419   -1.6533   -0.7944 H         1 <0>         0.0841
     41 H15        -3.7849   -0.1848    1.8489 H         1 <0>         0.0656
     42 H16        -3.6708    0.5565    0.2368 H         1 <0>         0.0725
     43 H17         1.7150    0.2019    2.7427 H         1 <0>         0.0663
     44 H18         0.1660    0.3856    3.6112 H         1 <0>         0.0841
     45 H19        -1.5628    2.1774   -0.2932 H         1 <0>         0.0730
     46 H20        -2.7435    2.7003    0.9504 H         1 <0>         0.0721
     47 H21        -0.3594    4.0537    0.4635 H         1 <0>         0.0844
     48 H22        -1.1636    4.0435    2.0586 H         1 <0>         0.0799
     49 H23         3.1156    3.2989    2.7435 H         1 <0>         0.0728
     50 H24         3.2163    1.7239    2.0923 H         1 <0>         0.0795
     51 H25         5.0380    3.1145    1.4192 H         1 <0>         0.3864
     52 H26         0.7932    3.7774    3.5221 H         1 <0>         0.3797
     53 H27         0.1888   -0.1413   -0.1038 H         1 <0>         0.1149
     54 H28         1.7677    0.5769    0.2955 H         1 <0>         0.0497
     55 H29         0.5088    1.5691   -0.4784 H         1 <0>         0.0515
     56 H30         1.8220   -1.5298    1.0013 H         1 <0>         0.3667
@<TRIPOS>BOND
     1    1    2 1
     2    1   31 1
     3    1   32 1
     4    1   33 1
     5    2    8 1
     6    2   13 1
     7    2    3 1
     8    3    4 1
     9    3   34 1
    10    3   35 1
    11    4    5 1
    12    4   36 1
    13    4   37 1
    14    5    6 2
    15    5    7 1
    16    7    8 2
    17    7   38 1
    18    8    9 1
    19    9   10 1
    20    9   39 1
    21    9   40 1
    22   10   11 1
    23   10   41 1
    24   10   42 1
    25   11   12 1
    26   11   19 1
    27   11   13 1
    28   13   14 1
    29   13   15 1
    30   15   16 1
    31   15   17 1
    32   15   30 1
    33   17   18 1
    34   17   43 1
    35   17   44 1
    36   18   23 1
    37   18   19 1
    38   18   29 1
    39   19   20 1
    40   19   21 1
    41   21   22 1
    42   21   45 1
    43   21   46 1
    44   22   23 1
    45   22   47 1
    46   22   48 1
    47   23   24 1
    48   23   28 1
    49   24   25 2
    50   24   26 1
    51   26   27 1
    52   26   49 1
    53   26   50 1
    54   27   51 1
    55   28   52 1
    56   29   53 1
    57   29   54 1
    58   29   55 1
    59   30   56 1
@<TRIPOS>MOLECULE
ZINC03833823
   54    57     0     0     0
SMALL
USER_CHARGES

@<TRIPOS>ATOM
      1 C1          6.3886    3.7827    0.2158 C.3       1 <0>        -0.1580
      2 C2          5.9162    3.7099    1.6693 C.3       1 <0>        -0.0534
      3 C3          5.7709    2.2612    2.0941 C.3       1 <0>        -0.1054
      4 C4          4.8491    1.5906    1.0650 C.3       1 <0>        -0.1231
      5 C5          3.4905    2.2806    0.9873 C.3       1 <0>        -0.0657
      6 H1          2.9696    2.1464    1.9353 H         1 <0>         0.0726
      7 C6          3.6411    3.7830    0.7077 C.3       1 <0>        -0.0796
      8 H2          4.0988    3.9359   -0.2696 H         1 <0>         0.0890
      9 C7          4.5164    4.3677    1.8013 C.3       1 <0>        -0.0784
     10 H3          4.0803    4.1718    2.7809 H         1 <0>         0.0800
     11 C8          4.8575    5.8552    1.6569 C.3       1 <0>        -0.1150
     12 C9          6.1558    5.9974    2.4972 C.3       1 <0>        -0.1164
     13 C10         6.8017    4.5902    2.5452 C.3       1 <0>        -0.1176
     14 H4          6.8237    4.2211    3.4743 H         1 <0>         0.0894
     15 C11         8.2026    4.6396    1.9920 C.2       1 <0>         0.3574
     16 O1          8.5072    5.4938    1.1946 O.2       1 <0>        -0.4238
     17 C12         9.2235    3.6229    2.4340 C.3       1 <0>         0.0346
     18 O2         10.4654    3.8773    1.7745 O.3       1 <0>        -0.5559
     19 C13         2.2581    4.4397    0.7459 C.3       1 <0>        -0.1139
     20 C14         1.4077    3.8901   -0.4015 C.3       1 <0>        -0.0966
     21 C15         1.3650    2.3677   -0.2904 C.2       1 <0>        -0.0179
     22 C16         0.1824    1.7594   -0.3747 C.2       1 <0>        -0.2428
     23 C17         0.1050    0.2951   -0.3282 C.2       1 <0>         0.3872
     24 O3         -0.9204   -0.2808   -0.0301 O.2       1 <0>        -0.4571
     25 C18         1.3737   -0.4607   -0.6715 C.3       1 <0>        -0.1591
     26 C19         2.5078    0.1530    0.1488 C.3       1 <0>        -0.1048
     27 C20         2.6629    1.6369   -0.1322 C.3       1 <0>        -0.0291
     28 C21         3.4392    1.7924   -1.4415 C.3       1 <0>        -0.1518
     29 H5          6.4572    4.8261   -0.0921 H         1 <0>         0.0662
     30 H6          7.3681    3.3128    0.1281 H         1 <0>         0.0516
     31 H7          5.6768    3.2611   -0.4241 H         1 <0>         0.0726
     32 H8          6.7460    1.7740    2.0923 H         1 <0>         0.0645
     33 H9          5.3316    2.2086    3.0903 H         1 <0>         0.0701
     34 H10         4.7033    0.5505    1.3567 H         1 <0>         0.0660
     35 H11         5.3194    1.6201    0.0822 H         1 <0>         0.0764
     36 H12         5.0439    6.1085    0.6132 H         1 <0>         0.0715
     37 H13         4.0614    6.4752    2.0691 H         1 <0>         0.0694
     38 H14         6.8346    6.7045    2.0203 H         1 <0>         0.0803
     39 H15         5.9139    6.3335    3.5055 H         1 <0>         0.0705
     40 H16         9.3520    3.6881    3.4236 H         1 <0>         0.0708
     41 H17         8.8744    2.6226    2.1781 H         1 <0>         0.0785
     42 H18        11.1705    3.2596    2.0119 H         1 <0>         0.3854
     43 H19         1.7749    4.2157    1.6970 H         1 <0>         0.0659
     44 H20         2.3643    5.5189    0.6359 H         1 <0>         0.0724
     45 H21         0.3948    4.2860   -0.3278 H         1 <0>         0.0766
     46 H22         1.8465    4.1840   -1.3549 H         1 <0>         0.0851
     47 H23        -0.7191    2.3444   -0.4818 H         1 <0>         0.1336
     48 H24         1.2570   -1.4278   -0.4455 H         1 <0>         0.0829
     49 H25         1.5890   -0.3593   -1.7352 H         1 <0>         0.0989
     50 H26         2.2967    0.0119    1.2088 H         1 <0>         0.0695
     51 H27         3.4404   -0.3541   -0.0985 H         1 <0>         0.0837
     52 H28         2.8880    1.3121   -2.2499 H         1 <0>         0.0590
     53 H29         3.5643    2.8516   -1.6662 H         1 <0>         0.0644
     54 H30         4.4184    1.3242   -1.3411 H         1 <0>         0.0693
@<TRIPOS>BOND
     1    1    2 1
     2    1   29 1
     3    1   30 1
     4    1   31 1
     5    2    9 1
     6    2   13 1
     7    2    3 1
     8    3    4 1
     9    3   32 1
    10    3   33 1
    11    4    5 1
    12    4   34 1
    13    4   35 1
    14    5    6 1
    15    5   27 1
    16    5    7 1
    17    7    8 1
    18    7    9 1
    19    7   19 1
    20    9   10 1
    21    9   11 1
    22   11   12 1
    23   11   36 1
    24   11   37 1
    25   12   13 1
    26   12   38 1
    27   12   39 1
    28   13   14 1
    29   13   15 1
    30   15   16 2
    31   15   17 1
    32   17   18 1
    33   17   40 1
    34   17   41 1
    35   18   42 1
    36   19   20 1
    37   19   43 1
    38   19   44 1
    39   20   21 1
    40   20   45 1
    41   20   46 1
    42   21   27 1
    43   21   22 2
    44   22   23 1
    45   22   47 1
    46   23   24 2
    47   23   25 1
    48   25   26 1
    49   25   48 1
    50   25   49 1
    51   26   27 1
    52   26   50 1
    53   26   51 1
    54   27   28 1
    55   28   52 1
    56   28   53 1
    57   28   54 1
@<TRIPOS>MOLECULE
ZINC03833824
   54    57     0     0     0
SMALL
USER_CHARGES

@<TRIPOS>ATOM
      1 C1          0.2967    2.4906   -2.2146 C.3       1 <0>        -0.1369
      2 C2          1.0442    2.0642   -0.9495 C.3       1 <0>        -0.0249
      3 C3          0.5623    2.9515    0.1843 C.3       1 <0>        -0.1052
      4 C4          1.2506    4.3157    0.1651 C.3       1 <0>        -0.1581
      5 C5          2.7441    4.0718    0.2594 C.2       1 <0>         0.3885
      6 O1          3.4387    4.6649    1.0580 O.2       1 <0>        -0.4582
      7 C6          3.3052    3.0814   -0.6660 C.2       1 <0>        -0.2460
      8 C7          2.5135    2.1653   -1.2225 C.2       1 <0>        -0.0153
      9 C8          3.1395    1.1899   -2.2026 C.3       1 <0>        -0.0974
     10 C9          2.7054   -0.2290   -1.8281 C.3       1 <0>        -0.1097
     11 C10         1.1761   -0.2933   -1.7827 C.3       1 <0>        -0.0897
     12 H1          0.7528    0.0319   -2.7331 H         1 <0>         0.1097
     13 C11         0.6696    0.6080   -0.6472 C.3       1 <0>        -0.0635
     14 H2          1.1545    0.3024    0.2800 H         1 <0>         0.0836
     15 C12        -0.8427    0.5059   -0.4737 C.3       1 <0>         0.1038
     16 H3         -1.1398    1.0830    0.4020 H         1 <0>         0.0693
     17 C13        -1.2974   -0.9509   -0.2916 C.3       1 <0>        -0.1382
     18 C14        -0.8204   -1.7231   -1.5066 C.3       1 <0>        -0.1219
     19 C15         0.7316   -1.7117   -1.4754 C.3       1 <0>        -0.0652
     20 H4          1.0954   -2.0308   -0.4987 H         1 <0>         0.0822
     21 C16         1.0710   -2.7608   -2.5402 C.3       1 <0>        -0.1232
     22 C17         0.0344   -3.8840   -2.2649 C.3       1 <0>        -0.1189
     23 C18        -1.1635   -3.2085   -1.5470 C.3       1 <0>        -0.1062
     24 H5         -1.2805   -3.5491   -0.6141 H         1 <0>         0.0998
     25 C19        -2.4350   -3.4298   -2.3250 C.2       1 <0>         0.3390
     26 O2         -2.3835   -3.7264   -3.4944 O.2       1 <0>        -0.4096
     27 C20        -3.7709   -3.2808   -1.6436 C.3       1 <0>         0.0372
     28 O3         -4.8163   -3.5390   -2.5831 O.3       1 <0>        -0.5545
     29 C21        -1.3110   -1.0513   -2.7633 C.2       1 <0>         0.3663
     30 O4         -0.6040   -1.0104   -3.7415 O.2       1 <0>        -0.4374
     31 O5         -1.4822    1.0526   -1.6288 O.3       1 <0>        -0.5475
     32 H6         -0.7329    2.7426   -1.9607 H         1 <0>         0.0888
     33 H7          0.7870    3.3611   -2.6503 H         1 <0>         0.0410
     34 H8          0.3035    1.6717   -2.9340 H         1 <0>         0.0674
     35 H9         -0.5142    3.0948    0.0908 H         1 <0>         0.0841
     36 H10         0.7732    2.4605    1.1343 H         1 <0>         0.0647
     37 H11         0.9317    4.8609    0.9404 H         1 <0>         0.0822
     38 H12         1.0181    4.8349   -0.7647 H         1 <0>         0.0995
     39 H13         4.3603    3.0945   -0.8960 H         1 <0>         0.1338
     40 H14         4.2256    1.2656   -2.1506 H         1 <0>         0.0778
     41 H15         2.8026    1.4204   -3.2133 H         1 <0>         0.0858
     42 H16         3.1098   -0.4870   -0.8493 H         1 <0>         0.0643
     43 H17         3.0774   -0.9327   -2.5727 H         1 <0>         0.0738
     44 H18        -0.8530   -1.3685    0.6119 H         1 <0>         0.0904
     45 H19        -2.3845   -0.9951   -0.2251 H         1 <0>         0.0773
     46 H20         0.9386   -2.3508   -3.5415 H         1 <0>         0.0934
     47 H21         2.0880   -3.1299   -2.4075 H         1 <0>         0.0688
     48 H22        -0.2966   -4.3261   -3.2046 H         1 <0>         0.0833
     49 H23         0.4736   -4.6499   -1.6256 H         1 <0>         0.0735
     50 H24        -3.8339   -3.9322   -0.8875 H         1 <0>         0.0740
     51 H25        -3.8711   -2.2661   -1.2583 H         1 <0>         0.0789
     52 H26        -5.7061   -3.4610   -2.2126 H         1 <0>         0.3876
     53 H27        -2.2948   -0.6065   -2.7890 H         1 <0>         0.0879
     54 H28        -2.4481    1.0239   -1.5942 H         1 <0>         0.3697
@<TRIPOS>BOND
     1    1    2 1
     2    1   32 1
     3    1   33 1
     4    1   34 1
     5    2    8 1
     6    2   13 1
     7    2    3 1
     8    3    4 1
     9    3   35 1
    10    3   36 1
    11    4    5 1
    12    4   37 1
    13    4   38 1
    14    5    6 2
    15    5    7 1
    16    7    8 2
    17    7   39 1
    18    8    9 1
    19    9   10 1
    20    9   40 1
    21    9   41 1
    22   10   11 1
    23   10   42 1
    24   10   43 1
    25   11   12 1
    26   11   19 1
    27   11   13 1
    28   13   14 1
    29   13   15 1
    30   15   16 1
    31   15   17 1
    32   15   31 1
    33   17   18 1
    34   17   44 1
    35   17   45 1
    36   18   23 1
    37   18   19 1
    38   18   29 1
    39   19   20 1
    40   19   21 1
    41   21   22 1
    42   21   46 1
    43   21   47 1
    44   22   23 1
    45   22   48 1
    46   22   49 1
    47   23   24 1
    48   23   25 1
    49   25   26 2
    50   25   27 1
    51   27   28 1
    52   27   50 1
    53   27   51 1
    54   28   52 1
    55   29   30 2
    56   29   53 1
    57   31   54 1
@<TRIPOS>MOLECULE
ZINC03833825
   61    65     0     0     0
SMALL
USER_CHARGES

@<TRIPOS>ATOM
      1 C1         -1.2926   -0.7753    0.0102 C.3       1 <0>        -0.1693
      2 C2          0.0021   -0.0041    0.0020 C.2       1 <0>         0.3139
      3 O1          1.0609   -0.5963   -0.0113 O.2       1 <0>        -0.4439
      4 S1         -0.0211    1.7077    0.0114 S.3       1 <0>        -0.1509
      5 C3          1.7697    2.0487   -0.0038 C.3       1 <0>        -0.0471
      6 H1          2.2166    1.4703   -0.8138 H         1 <0>         0.1340
      7 C4          2.2995    1.5052    1.3255 C.3       1 <0>        -0.1043
      8 C5          3.6281    2.0974    1.7182 C.2       1 <0>        -0.0115
      9 C6          4.5899    1.2749    2.1352 C.2       1 <0>        -0.2340
     10 C7          5.8931    1.8317    2.5180 C.2       1 <0>         0.3894
     11 O2          6.9157    1.1871    2.4427 O.2       1 <0>        -0.4514
     12 C8          5.8762    3.2653    3.0124 C.3       1 <0>        -0.1576
     13 C9          5.1700    4.1078    1.9526 C.3       1 <0>        -0.1084
     14 C10         3.7895    3.5842    1.6079 C.3       1 <0>        -0.0270
     15 C11         3.4361    3.9541    0.1669 C.3       1 <0>        -0.0602
     16 H2          3.5352    5.0310    0.0309 H         1 <0>         0.0874
     17 C12         2.0143    3.5287   -0.2067 C.3       1 <0>        -0.0518
     18 H3          1.3184    4.0771    0.4614 H         1 <0>         0.0805
     19 C13         1.7288    4.0362   -1.6154 C.3       1 <0>        -0.0724
     20 H4          1.6088    5.1455   -1.5794 H         1 <0>         0.0899
     21 C14         0.4617    3.3947   -2.2242 C.3       1 <0>        -0.1234
     22 C15         0.9522    2.0997   -2.9052 C.3       1 <0>        -0.1379
     23 C16         2.4576    2.2883   -3.1564 C.3       1 <0>         0.1173
     24 C17         2.8023    3.6868   -2.6592 C.3       1 <0>        -0.0446
     25 C18         4.2246    3.8188   -2.1742 C.3       1 <0>        -0.0988
     26 C19         4.4072    3.2320   -0.7774 C.3       1 <0>        -0.1288
     27 C20         2.6271    4.6798   -3.8235 C.3       1 <0>        -0.1486
     28 C21         2.7768    2.1012   -4.6485 C.3       1 <0>        -0.1415
     29 C22         3.0564    0.5744   -4.6955 C.3       1 <0>        -0.1922
     30 C23         3.5865    0.2770   -3.3047 C.2       1 <0>         0.4748
     31 O3          4.2351   -0.7007   -2.9937 O.2       1 <0>        -0.4529
     32 O4          3.2264    1.2673   -2.4726 O.3       1 <0>        -0.3245
     33 C24         2.7934    4.2521    2.5553 C.3       1 <0>        -0.1454
     34 H5         -2.0614   -0.1359    0.0210 H         1 <0>         0.0768
     35 H6         -1.3504   -1.3978   -0.8826 H         1 <0>         0.0987
     36 H7         -1.3334   -1.4074    0.8973 H         1 <0>         0.1005
     37 H8          1.5586    1.7007    2.1087 H         1 <0>         0.0890
     38 H9          2.4019    0.4147    1.2376 H         1 <0>         0.0954
     39 H10         4.4148    0.2129    2.1919 H         1 <0>         0.1350
     40 H11         5.3884    3.3115    3.8841 H         1 <0>         0.0900
     41 H12         6.8991    3.6202    3.1455 H         1 <0>         0.0917
     42 H13         5.0676    5.1292    2.3356 H         1 <0>         0.0818
     43 H14         5.7883    4.1449    1.0584 H         1 <0>         0.0766
     44 H15        -0.3291    3.2367   -1.5107 H         1 <0>         0.0951
     45 H16         0.0492    4.0657   -3.0042 H         1 <0>         0.0673
     46 H17         0.7839    1.2341   -2.2691 H         1 <0>         0.0777
     47 H18         0.4343    1.9599   -3.8572 H         1 <0>         0.0805
     48 H19         4.8879    3.3008   -2.8696 H         1 <0>         0.0619
     49 H20         4.4976    4.8761   -2.1559 H         1 <0>         0.0686
     50 H21         5.4341    3.3852   -0.4503 H         1 <0>         0.0668
     51 H22         4.1867    2.1659   -0.7854 H         1 <0>         0.0853
     52 H23         2.7599    5.6974   -3.4563 H         1 <0>         0.0661
     53 H24         3.3699    4.4715   -4.5936 H         1 <0>         0.0622
     54 H25         1.6274    4.5732   -4.2447 H         1 <0>         0.0630
     55 H26         1.9265    2.3519   -5.2737 H         1 <0>         0.1039
     56 H27         3.6762    2.6385   -4.9427 H         1 <0>         0.0935
     57 H28         2.1370    0.0244   -4.8855 H         1 <0>         0.1121
     58 H29         3.8088    0.3508   -5.4504 H         1 <0>         0.1114
     59 H30         2.9931    3.9312    3.5777 H         1 <0>         0.0608
     60 H31         2.8975    5.3350    2.4875 H         1 <0>         0.0659
     61 H32         1.7791    3.9665    2.2764 H         1 <0>         0.0635
@<TRIPOS>BOND
     1    1    2 1
     2    1   34 1
     3    1   35 1
     4    1   36 1
     5    2    3 2
     6    2    4 1
     7    4    5 1
     8    5    6 1
     9    5   17 1
    10    5    7 1
    11    7    8 1
    12    7   37 1
    13    7   38 1
    14    8   14 1
    15    8    9 2
    16    9   10 1
    17    9   39 1
    18   10   11 2
    19   10   12 1
    20   12   13 1
    21   12   40 1
    22   12   41 1
    23   13   14 1
    24   13   42 1
    25   13   43 1
    26   14   15 1
    27   14   33 1
    28   15   16 1
    29   15   26 1
    30   15   17 1
    31   17   18 1
    32   17   19 1
    33   19   20 1
    34   19   24 1
    35   19   21 1
    36   21   22 1
    37   21   44 1
    38   21   45 1
    39   22   23 1
    40   22   46 1
    41   22   47 1
    42   23   32 1
    43   23   24 1
    44   23   28 1
    45   24   25 1
    46   24   27 1
    47   25   26 1
    48   25   48 1
    49   25   49 1
    50   26   50 1
    51   26   51 1
    52   27   52 1
    53   27   53 1
    54   27   54 1
    55   28   29 1
    56   28   55 1
    57   28   56 1
    58   29   30 1
    59   29   57 1
    60   29   58 1
    61   30   31 2
    62   30   32 1
    63   33   59 1
    64   33   60 1
    65   33   61 1
@<TRIPOS>MOLECULE
ZINC03833952
   55    58     0     0     0
SMALL
USER_CHARGES

@<TRIPOS>ATOM
      1 C1         -1.3150    0.4875    0.3582 C.3       1 <0>        -0.1996
      2 C2         -0.7312    1.5583    1.2434 C.2       1 <0>         0.3612
      3 O1         -0.6959    2.7037    0.8624 O.2       1 <0>        -0.4525
      4 C3         -0.1914    1.1998    2.6040 C.3       1 <0>        -0.1243
      5 H1          0.1846    0.2735    2.5799 H         1 <0>         0.0880
      6 C4          0.8910    2.2195    3.0377 C.3       1 <0>        -0.1185
      7 C5          0.4096    2.8229    4.3856 C.3       1 <0>        -0.1147
      8 C6         -0.5226    1.7368    4.9334 C.3       1 <0>        -0.0783
      9 H2          0.0572    0.9020    5.3271 H         1 <0>         0.0764
     10 C7         -1.2917    1.3084    3.6543 C.3       1 <0>        -0.0494
     11 C8         -2.0434    0.0334    3.9826 C.3       1 <0>        -0.1054
     12 C9         -3.0834    0.3803    5.0611 C.3       1 <0>        -0.1196
     13 C10        -2.4236    0.9817    6.2975 C.3       1 <0>        -0.0680
     14 H3         -1.7790    0.2297    6.7527 H         1 <0>         0.0668
     15 C11        -1.5464    2.1961    5.9547 C.3       1 <0>        -0.0763
     16 H4         -2.1677    2.9845    5.5299 H         1 <0>         0.0825
     17 C12        -0.8739    2.7107    7.2092 C.3       1 <0>        -0.1123
     18 C13        -1.9403    3.1333    8.2204 C.3       1 <0>        -0.1161
     19 C14        -2.8234    1.9344    8.5754 C.3       1 <0>        -0.0684
     20 H5         -2.2128    1.1529    9.0278 H         1 <0>         0.0757
     21 C15        -3.4934    1.3930    7.3115 C.3       1 <0>        -0.0507
     22 C16        -4.3403    0.1646    7.6572 C.3       1 <0>        -0.1084
     23 C17        -5.4702    0.5689    8.6084 C.3       1 <0>        -0.1636
     24 C18        -4.8580    1.2524    9.8114 C.2       1 <0>         0.3602
     25 O2         -5.1286    0.8957   10.9329 O.2       1 <0>        -0.4572
     26 C19        -3.8974    2.3942    9.5691 C.3       1 <0>        -0.1599
     27 C20        -4.3853    2.4765    6.7020 C.3       1 <0>        -0.1539
     28 C21        -2.2820    2.4042    3.2548 C.3       1 <0>        -0.1557
     29 H6         -2.0912    0.0592    0.8208 H         1 <0>         0.0827
     30 H7         -0.5553   -0.2659    0.1500 H         1 <0>         0.0918
     31 H8         -1.6509    0.9332   -0.5780 H         1 <0>         0.0811
     32 H9          1.8474    1.7146    3.1742 H         1 <0>         0.0675
     33 H10         0.9868    3.0051    2.2882 H         1 <0>         0.0782
     34 H11         1.2516    2.9840    5.0587 H         1 <0>         0.0672
     35 H12        -0.1361    3.7517    4.2194 H         1 <0>         0.0700
     36 H13        -2.5452   -0.3414    3.0905 H         1 <0>         0.0638
     37 H14        -1.3509   -0.7182    4.3617 H         1 <0>         0.0670
     38 H15        -3.7954    1.0974    4.6524 H         1 <0>         0.0715
     39 H16        -3.6159   -0.5266    5.3478 H         1 <0>         0.0663
     40 H17        -0.2449    3.5665    6.9641 H         1 <0>         0.0663
     41 H18        -0.2600    1.9181    7.6371 H         1 <0>         0.0612
     42 H19        -2.5566    3.9220    7.7887 H         1 <0>         0.0683
     43 H20        -1.4561    3.5065    9.1229 H         1 <0>         0.0642
     44 H21        -4.7662   -0.2511    6.7440 H         1 <0>         0.0810
     45 H22        -3.7123   -0.5853    8.1380 H         1 <0>         0.0673
     46 H23        -5.9729   -0.2468    8.8945 H         1 <0>         0.0784
     47 H24        -6.1493    1.2550    8.1022 H         1 <0>         0.1001
     48 H25        -3.4631    2.6616   10.4292 H         1 <0>         0.0789
     49 H26        -4.4383    3.2450    9.1547 H         1 <0>         0.1008
     50 H27        -4.8663    2.0885    5.8041 H         1 <0>         0.0606
     51 H28        -5.1471    2.7690    7.4247 H         1 <0>         0.0579
     52 H29        -3.7780    3.3438    6.4430 H         1 <0>         0.0643
     53 H30        -2.8045    2.1077    2.3454 H         1 <0>         0.0493
     54 H31        -3.0046    2.5511    4.0575 H         1 <0>         0.0716
     55 H32        -1.7423    3.3343    3.0770 H         1 <0>         0.0647
@<TRIPOS>BOND
     1    1    2 1
     2    1   29 1
     3    1   30 1
     4    1   31 1
     5    2    3 2
     6    2    4 1
     7    4    5 1
     8    4   10 1
     9    4    6 1
    10    6    7 1
    11    6   32 1
    12    6   33 1
    13    7    8 1
    14    7   34 1
    15    7   35 1
    16    8    9 1
    17    8   15 1
    18    8   10 1
    19   10   11 1
    20   10   28 1
    21   11   12 1
    22   11   36 1
    23   11   37 1
    24   12   13 1
    25   12   38 1
    26   12   39 1
    27   13   14 1
    28   13   21 1
    29   13   15 1
    30   15   16 1
    31   15   17 1
    32   17   18 1
    33   17   40 1
    34   17   41 1
    35   18   19 1
    36   18   42 1
    37   18   43 1
    38   19   20 1
    39   19   26 1
    40   19   21 1
    41   21   22 1
    42   21   27 1
    43   22   23 1
    44   22   44 1
    45   22   45 1
    46   23   24 1
    47   23   46 1
    48   23   47 1
    49   24   25 2
    50   24   26 1
    51   26   48 1
    52   26   49 1
    53   27   50 1
    54   27   51 1
    55   27   52 1
    56   28   53 1
    57   28   54 1
    58   28   55 1
@<TRIPOS>MOLECULE
ZINC03833953
   55    58     0     0     0
SMALL
USER_CHARGES

@<TRIPOS>ATOM
      1 C1         -0.4945    2.2409    1.2865 C.3       1 <0>        -0.1981
      2 C2         -0.0157    1.5156    0.0553 C.2       1 <0>         0.3621
      3 O1          0.3523    2.1417   -0.9095 O.2       1 <0>        -0.4539
      4 C3         -0.0021    0.0090    0.0259 C.3       1 <0>        -0.1246
      5 H1         -0.7535   -0.3421    0.5846 H         1 <0>         0.0880
      6 C4         -0.1189   -0.5005   -1.4324 C.3       1 <0>        -0.1188
      7 C5          1.1316   -1.3853   -1.6887 C.3       1 <0>        -0.1145
      8 C6          1.5335   -1.8287   -0.2777 C.3       1 <0>        -0.0793
      9 H2          0.8585   -2.6045    0.0836 H         1 <0>         0.0769
     10 C7          1.3372   -0.5173    0.5307 C.3       1 <0>        -0.0496
     11 C8          1.4148   -0.8752    2.0017 C.3       1 <0>        -0.1055
     12 C9          2.8400   -1.3848    2.2749 C.3       1 <0>        -0.1203
     13 C10         3.1848   -2.5744    1.3855 C.3       1 <0>        -0.0724
     14 H3          2.5336   -3.4095    1.6438 H         1 <0>         0.0698
     15 C11         2.9818   -2.2438   -0.1019 C.3       1 <0>        -0.0773
     16 H4          3.6372   -1.4213   -0.3884 H         1 <0>         0.0866
     17 C12         3.2884   -3.4853   -0.9398 C.3       1 <0>        -0.1169
     18 C13         4.7396   -3.9129   -0.7084 C.3       1 <0>        -0.1170
     19 C14         4.9421   -4.2389    0.7747 C.3       1 <0>        -0.0691
     20 H5          5.9730   -4.5500    0.9439 H         1 <0>         0.0764
     21 C15         4.6380   -2.9922    1.6081 C.3       1 <0>        -0.0523
     22 C16         4.8790   -3.2765    3.0895 C.3       1 <0>        -0.1070
     23 C17         3.9382   -4.3657    3.5766 C.3       1 <0>        -0.1633
     24 C18         4.0928   -5.5726    2.6776 C.2       1 <0>         0.3602
     25 O2          4.2931   -6.6695    3.1413 O.2       1 <0>        -0.4569
     26 C19         3.9895   -5.3688    1.1828 C.3       1 <0>        -0.1614
     27 C20         5.5630   -1.8546    1.1709 C.3       1 <0>        -0.1498
     28 C21         2.4476    0.4759    0.1821 C.3       1 <0>        -0.1561
     29 H6         -0.7635    1.5749    1.9823 H         1 <0>         0.0723
     30 H7          0.3087    2.8674    1.6745 H         1 <0>         0.0907
     31 H8         -1.3508    2.8649    1.0306 H         1 <0>         0.0916
     32 H9         -1.0265   -1.0924   -1.5504 H         1 <0>         0.0674
     33 H10        -0.1289    0.3424   -2.1235 H         1 <0>         0.0783
     34 H11         0.8747   -2.2468   -2.3051 H         1 <0>         0.0670
     35 H12         1.9270   -0.8032   -2.1542 H         1 <0>         0.0701
     36 H13         1.2139    0.0074    2.6090 H         1 <0>         0.0646
     37 H14         0.6901   -1.6561    2.2320 H         1 <0>         0.0664
     38 H15         3.5494   -0.5795    2.0844 H         1 <0>         0.0718
     39 H16         2.9164   -1.6875    3.3193 H         1 <0>         0.0654
     40 H17         3.1411   -3.2566   -1.9953 H         1 <0>         0.0654
     41 H18         2.6201   -4.2952   -0.6471 H         1 <0>         0.0633
     42 H19         5.4082   -3.1019   -0.9971 H         1 <0>         0.0720
     43 H20         4.9585   -4.7963   -1.3082 H         1 <0>         0.0648
     44 H21         5.9057   -3.6137    3.2321 H         1 <0>         0.0670
     45 H22         4.7131   -2.3661    3.6655 H         1 <0>         0.0801
     46 H23         2.9960   -4.0326    3.5413 H         1 <0>         0.0901
     47 H24         4.1836   -4.6393    4.6028 H         1 <0>         0.0873
     48 H25         3.0526   -5.1200    0.9370 H         1 <0>         0.0948
     49 H26         4.2684   -6.2870    0.6658 H         1 <0>         0.0871
     50 H27         5.3453   -0.9630    1.7588 H         1 <0>         0.0598
     51 H28         6.6006   -2.1492    1.3283 H         1 <0>         0.0554
     52 H29         5.4022   -1.6413    0.1141 H         1 <0>         0.0654
     53 H30         2.2878    1.4058    0.7280 H         1 <0>         0.0493
     54 H31         3.4133    0.0533    0.4592 H         1 <0>         0.0721
     55 H32         2.4326    0.6764   -0.8892 H         1 <0>         0.0647
@<TRIPOS>BOND
     1    1    2 1
     2    1   29 1
     3    1   30 1
     4    1   31 1
     5    2    3 2
     6    2    4 1
     7    4    5 1
     8    4   10 1
     9    4    6 1
    10    6    7 1
    11    6   32 1
    12    6   33 1
    13    7    8 1
    14    7   34 1
    15    7   35 1
    16    8    9 1
    17    8   15 1
    18    8   10 1
    19   10   11 1
    20   10   28 1
    21   11   12 1
    22   11   36 1
    23   11   37 1
    24   12   13 1
    25   12   38 1
    26   12   39 1
    27   13   14 1
    28   13   21 1
    29   13   15 1
    30   15   16 1
    31   15   17 1
    32   17   18 1
    33   17   40 1
    34   17   41 1
    35   18   19 1
    36   18   42 1
    37   18   43 1
    38   19   20 1
    39   19   26 1
    40   19   21 1
    41   21   22 1
    42   21   27 1
    43   22   23 1
    44   22   44 1
    45   22   45 1
    46   23   24 1
    47   23   46 1
    48   23   47 1
    49   24   25 2
    50   24   26 1
    51   26   48 1
    52   26   49 1
    53   27   50 1
    54   27   51 1
    55   27   52 1
    56   28   53 1
    57   28   54 1
    58   28   55 1
@<TRIPOS>MOLECULE
ZINC03833954
   57    60     0     0     0
SMALL
USER_CHARGES

@<TRIPOS>ATOM
      1 C1          0.3999    0.7287   -1.2623 C.3       1 <0>        -0.1992
      2 C2         -0.0066    1.4989   -0.0324 C.2       1 <0>         0.3621
      3 O1          0.7260    1.5353    0.9269 O.2       1 <0>        -0.4536
      4 C3         -1.3247    2.2290   -0.0021 C.3       1 <0>        -0.1244
      5 H1         -1.9937    1.7321   -0.5548 H         1 <0>         0.0880
      6 C4         -1.8220    2.3784    1.4574 C.3       1 <0>        -0.1186
      7 C5         -2.0031    3.9010    1.7045 C.3       1 <0>        -0.1148
      8 C6         -2.2076    4.4562    0.2908 C.3       1 <0>        -0.0791
      9 H2         -3.2175    4.2421   -0.0590 H         1 <0>         0.0769
     10 C7         -1.1514    3.6541   -0.5168 C.3       1 <0>        -0.0487
     11 C8         -1.4358    3.8828   -1.9882 C.3       1 <0>        -0.1054
     12 C9         -1.2072    5.3770   -2.2721 C.3       1 <0>        -0.1192
     13 C10        -2.0854    6.2520   -1.3843 C.3       1 <0>        -0.0678
     14 H3         -3.1301    6.0823   -1.6448 H         1 <0>         0.0657
     15 C11        -1.8853    5.9268    0.1041 C.3       1 <0>        -0.0769
     16 H4         -0.8494    6.1154    0.3862 H         1 <0>         0.0848
     17 C12        -2.8337    6.7900    0.9374 C.3       1 <0>        -0.1119
     18 C13        -2.5214    8.2683    0.6963 C.3       1 <0>        -0.1158
     19 C14        -2.7077    8.5952   -0.7865 C.3       1 <0>        -0.0705
     20 H5         -3.7394    8.3935   -1.0748 H         1 <0>         0.0697
     21 C15        -1.7656    7.7280   -1.6241 C.3       1 <0>        -0.0473
     22 C16        -1.9543    8.0562   -3.1066 C.3       1 <0>        -0.1084
     23 C17        -1.6378    9.5336   -3.3470 C.3       1 <0>        -0.1537
     24 C18        -2.5808   10.3999   -2.5095 C.3       1 <0>         0.1051
     25 H6         -3.6123   10.1972   -2.7973 H         1 <0>         0.0518
     26 C19        -2.3911   10.0725   -1.0270 C.3       1 <0>        -0.1097
     27 O2         -2.2857   11.7799   -2.7343 O.3       1 <0>        -0.5698
     28 C20        -0.3170    8.0086   -1.2196 C.3       1 <0>        -0.1527
     29 C21         0.2523    4.1594   -0.1774 C.3       1 <0>        -0.1561
     30 H7          0.0745   -0.2139   -1.1879 H         1 <0>         0.0856
     31 H8         -0.0378    1.1956   -2.1446 H         1 <0>         0.0846
     32 H9          1.4863    0.7322   -1.3505 H         1 <0>         0.0844
     33 H10        -2.7743    1.8631    1.5827 H         1 <0>         0.0673
     34 H11        -1.0828    1.9725    2.1480 H         1 <0>         0.0780
     35 H12        -2.8802    4.0896    2.3236 H         1 <0>         0.0670
     36 H13        -1.1092    4.3267    2.1605 H         1 <0>         0.0697
     37 H14        -2.4689    3.6167   -2.2118 H         1 <0>         0.0664
     38 H15        -0.7587    3.2822   -2.5955 H         1 <0>         0.0636
     39 H16        -1.4408    5.5813   -3.3170 H         1 <0>         0.0642
     40 H17        -0.1605    5.6182   -2.0870 H         1 <0>         0.0701
     41 H18        -3.8635    6.5838    0.6458 H         1 <0>         0.0607
     42 H19        -2.7018    6.5584    1.9944 H         1 <0>         0.0635
     43 H20        -1.4911    8.4740    0.9868 H         1 <0>         0.0662
     44 H21        -3.1960    8.8838    1.2915 H         1 <0>         0.0618
     45 H22        -1.2828    7.4391   -3.7036 H         1 <0>         0.0691
     46 H23        -2.9858    7.8542   -3.3950 H         1 <0>         0.0618
     47 H24        -0.6063    9.7359   -3.0586 H         1 <0>         0.0739
     48 H25        -1.7721    9.7668   -4.4033 H         1 <0>         0.0616
     49 H26        -1.3593   10.2745   -0.7394 H         1 <0>         0.0730
     50 H27        -3.0622   10.6899   -0.4298 H         1 <0>         0.0672
     51 H28        -2.3847   12.0584   -3.6550 H         1 <0>         0.3773
     52 H29         0.3533    7.3901   -1.8165 H         1 <0>         0.0555
     53 H30        -0.0893    9.0608   -1.3906 H         1 <0>         0.0598
     54 H31        -0.1829    7.7749   -0.1634 H         1 <0>         0.0611
     55 H32         0.9914    3.5732   -0.7233 H         1 <0>         0.0498
     56 H33         0.3392    5.2084   -0.4608 H         1 <0>         0.0718
     57 H34         0.4262    4.0568    0.8937 H         1 <0>         0.0644
@<TRIPOS>BOND
     1    1    2 1
     2    1   30 1
     3    1   31 1
     4    1   32 1
     5    2    3 2
     6    2    4 1
     7    4    5 1
     8    4   10 1
     9    4    6 1
    10    6    7 1
    11    6   33 1
    12    6   34 1
    13    7    8 1
    14    7   35 1
    15    7   36 1
    16    8    9 1
    17    8   15 1
    18    8   10 1
    19   10   11 1
    20   10   29 1
    21   11   12 1
    22   11   37 1
    23   11   38 1
    24   12   13 1
    25   12   39 1
    26   12   40 1
    27   13   14 1
    28   13   21 1
    29   13   15 1
    30   15   16 1
    31   15   17 1
    32   17   18 1
    33   17   41 1
    34   17   42 1
    35   18   19 1
    36   18   43 1
    37   18   44 1
    38   19   20 1
    39   19   26 1
    40   19   21 1
    41   21   22 1
    42   21   28 1
    43   22   23 1
    44   22   45 1
    45   22   46 1
    46   23   24 1
    47   23   47 1
    48   23   48 1
    49   24   25 1
    50   24   26 1
    51   24   27 1
    52   26   49 1
    53   26   50 1
    54   27   51 1
    55   28   52 1
    56   28   53 1
    57   28   54 1
    58   29   55 1
    59   29   56 1
    60   29   57 1
@<TRIPOS>MOLECULE
ZINC04199917
   51    54     0     0     0
SMALL
USER_CHARGES

@<TRIPOS>ATOM
      1 C1         -0.0184    1.5028    0.0103 C.3       1 <0>        -0.1410
      2 C2          0.0021   -0.0041    0.0020 C.2       1 <0>        -0.0509
      3 C3         -1.1445   -0.6870    0.0093 C.2       1 <0>        -0.2129
      4 C4         -1.2983   -2.1589   -0.0036 C.2       1 <0>         0.3900
      5 O1         -0.3998   -2.9732    0.0356 O.2       1 <0>        -0.4477
      6 C5         -2.7941   -2.4684   -0.0716 C.3       1 <0>        -0.1562
      7 C6         -3.3670   -1.1967   -0.7096 C.3       1 <0>        -0.0764
      8 H1         -3.1732   -1.1795   -1.7821 H         1 <0>         0.0865
      9 C7         -2.5287   -0.1142    0.0256 C.3       1 <0>        -0.0250
     10 C8         -2.7550    1.1901   -0.7107 C.3       1 <0>        -0.1130
     11 C9         -4.2236    1.5670   -0.5427 C.3       1 <0>        -0.1240
     12 C10        -5.1492    0.4672   -1.0536 C.3       1 <0>        -0.0664
     13 H2         -5.0436    0.3893   -2.1357 H         1 <0>         0.0727
     14 C11        -4.8261   -0.8946   -0.4210 C.3       1 <0>        -0.0753
     15 H3         -4.9927   -0.8547    0.6554 H         1 <0>         0.0914
     16 C12        -5.7127   -1.9661   -1.0621 C.3       1 <0>        -0.1152
     17 C13        -7.1822   -1.6846   -0.7428 C.3       1 <0>        -0.0987
     18 C14        -7.5188   -0.2632   -1.1556 C.2       1 <0>        -0.0192
     19 C15        -8.6336   -0.0869   -1.8436 C.2       1 <0>        -0.2398
     20 C16        -9.0305    1.2654   -2.2508 C.2       1 <0>         0.3854
     21 O2         -9.7955    1.4557   -3.1731 O.2       1 <0>        -0.4566
     22 C17        -8.4352    2.4129   -1.4586 C.3       1 <0>        -0.1593
     23 C18        -6.9271    2.1787   -1.3778 C.3       1 <0>        -0.1057
     24 C19        -6.6014    0.8430   -0.7335 C.3       1 <0>        -0.0278
     25 C20        -6.7228    1.0066    0.7828 C.3       1 <0>        -0.1507
     26 C21        -3.0139    0.0191    1.4705 C.3       1 <0>        -0.1487
     27 H4          1.0042    1.8801    0.0026 H         1 <0>         0.0671
     28 H5         -0.5455    1.8639   -0.8728 H         1 <0>         0.0855
     29 H6         -0.5286    1.8543    0.9071 H         1 <0>         0.0777
     30 H7          0.9446   -0.5313   -0.0098 H         1 <0>         0.1232
     31 H8         -3.1401   -2.6451    0.8498 H         1 <0>         0.0963
     32 H9         -2.9815   -3.3365   -0.7037 H         1 <0>         0.0915
     33 H10        -2.1228    1.9706   -0.2873 H         1 <0>         0.0800
     34 H11        -2.5311    1.0628   -1.7699 H         1 <0>         0.0665
     35 H12        -4.4229    2.4844   -1.0966 H         1 <0>         0.0682
     36 H13        -4.4267    1.7395    0.5142 H         1 <0>         0.0763
     37 H14        -5.5872   -1.9426   -2.1446 H         1 <0>         0.0655
     38 H15        -5.4288   -2.9479   -0.6832 H         1 <0>         0.0732
     39 H16        -7.3292   -1.7978    0.3313 H         1 <0>         0.0825
     40 H17        -7.8278   -2.3827   -1.2757 H         1 <0>         0.0793
     41 H18        -9.2465   -0.9339   -2.1145 H         1 <0>         0.1348
     42 H19        -8.8397    2.4319   -0.5443 H         1 <0>         0.0905
     43 H20        -8.6369    3.3568   -1.9650 H         1 <0>         0.0916
     44 H21        -6.4741    2.9770   -0.7899 H         1 <0>         0.0840
     45 H22        -6.5095    2.1992   -2.3845 H         1 <0>         0.0701
     46 H23        -6.0471    1.7932    1.1187 H         1 <0>         0.0700
     47 H24        -7.7480    1.2745    1.0385 H         1 <0>         0.0587
     48 H25        -6.4597    0.0685    1.2717 H         1 <0>         0.0643
     49 H26        -2.3577    0.6999    2.0128 H         1 <0>         0.0573
     50 H27        -4.0307    0.4119    1.4775 H         1 <0>         0.0748
     51 H28        -2.9991   -0.9594    1.9505 H         1 <0>         0.0556
@<TRIPOS>BOND
     1    1    2 1
     2    1   27 1
     3    1   28 1
     4    1   29 1
     5    2    3 2
     6    2   30 1
     7    3    9 1
     8    3    4 1
     9    4    5 2
    10    4    6 1
    11    6    7 1
    12    6   31 1
    13    6   32 1
    14    7    8 1
    15    7   14 1
    16    7    9 1
    17    9   10 1
    18    9   26 1
    19   10   11 1
    20   10   33 1
    21   10   34 1
    22   11   12 1
    23   11   35 1
    24   11   36 1
    25   12   13 1
    26   12   24 1
    27   12   14 1
    28   14   15 1
    29   14   16 1
    30   16   17 1
    31   16   37 1
    32   16   38 1
    33   17   18 1
    34   17   39 1
    35   17   40 1
    36   18   24 1
    37   18   19 2
    38   19   20 1
    39   19   41 1
    40   20   21 2
    41   20   22 1
    42   22   23 1
    43   22   42 1
    44   22   43 1
    45   23   24 1
    46   23   44 1
    47   23   45 1
    48   24   25 1
    49   25   46 1
    50   25   47 1
    51   25   48 1
    52   26   49 1
    53   26   50 1
    54   26   51 1
@<TRIPOS>MOLECULE
ZINC04199918
   51    54     0     0     0
SMALL
USER_CHARGES

@<TRIPOS>ATOM
      1 C1          7.5195    6.8231   -3.6130 C.3       1 <0>        -0.1350
      2 C2          6.2394    6.6350   -2.8405 C.2       1 <0>        -0.0496
      3 C3          5.9340    5.4376   -2.3364 C.2       1 <0>        -0.2148
      4 C4          6.7381    4.2000   -2.4450 C.2       1 <0>         0.3879
      5 O1          7.8310    4.0993   -2.9622 O.2       1 <0>        -0.4438
      6 C5          5.9435    3.0711   -1.7868 C.3       1 <0>        -0.1572
      7 C6          4.4982    3.5695   -1.9023 C.3       1 <0>        -0.0752
      8 H1          4.0988    3.4409   -2.9083 H         1 <0>         0.0891
      9 C7          4.7099    5.0823   -1.5491 C.3       1 <0>        -0.0264
     10 C8          3.4221    5.8002   -1.8964 C.3       1 <0>        -0.1010
     11 C9          2.3360    5.2604   -0.9518 C.3       1 <0>        -0.1243
     12 C10         2.1904    3.7456   -1.0621 C.3       1 <0>        -0.0660
     13 H2          1.7962    3.4985   -2.0478 H         1 <0>         0.0737
     14 C11         3.5324    3.0249   -0.8661 C.3       1 <0>        -0.0782
     15 H3          3.9093    3.2052    0.1406 H         1 <0>         0.0920
     16 C12         3.3284    1.5233   -1.0881 C.3       1 <0>        -0.1156
     17 C13         2.4070    0.9749    0.0035 C.3       1 <0>        -0.0969
     18 C14         1.1171    1.7747    0.0019 C.2       1 <0>        -0.0181
     19 C15        -0.0312    1.0984    0.0092 C.2       1 <0>        -0.2425
     20 C16        -1.3085    1.8196    0.0180 C.2       1 <0>         0.3863
     21 O2         -2.3386    1.2988   -0.3558 O.2       1 <0>        -0.4564
     22 C17        -1.2708    3.2504    0.5244 C.3       1 <0>        -0.1590
     23 C18        -0.1371    3.9623   -0.2125 C.3       1 <0>        -0.1059
     24 C19         1.1968    3.2701    0.0053 C.3       1 <0>        -0.0292
     25 C20         1.7247    3.7132    1.3713 C.3       1 <0>        -0.1513
     26 C21         4.9970    5.2340   -0.0539 C.3       1 <0>        -0.1484
     27 H4          7.5202    6.1639   -4.4812 H         1 <0>         0.0765
     28 H5          7.5957    7.8590   -3.9433 H         1 <0>         0.0660
     29 H6          8.3686    6.5823   -2.9734 H         1 <0>         0.0780
     30 H7          5.5691    7.4692   -2.6948 H         1 <0>         0.1254
     31 H8          6.1052    2.2173   -2.2816 H         1 <0>         0.0823
     32 H9          6.2428    2.9427   -0.7466 H         1 <0>         0.1045
     33 H10         3.1498    5.5950   -2.9317 H         1 <0>         0.0673
     34 H11         3.5433    6.8733   -1.7487 H         1 <0>         0.0670
     35 H12         1.3835    5.7278   -1.2018 H         1 <0>         0.0676
     36 H13         2.5977    5.5182    0.0745 H         1 <0>         0.0769
     37 H14         4.2911    1.0141   -1.0419 H         1 <0>         0.0726
     38 H15         2.8749    1.3568   -2.0652 H         1 <0>         0.0675
     39 H16         2.8941    1.0692    0.9741 H         1 <0>         0.0845
     40 H17         2.1868   -0.0741   -0.1943 H         1 <0>         0.0782
     41 H18        -0.0214    0.0185    0.0042 H         1 <0>         0.1339
     42 H19        -1.1090    3.2506    1.5112 H         1 <0>         0.0905
     43 H20        -2.2191    3.7430    0.3097 H         1 <0>         0.0914
     44 H21        -0.0681    4.9885    0.1482 H         1 <0>         0.0843
     45 H22        -0.3609    3.9750   -1.2792 H         1 <0>         0.0698
     46 H23         2.7128    3.2835    1.5357 H         1 <0>         0.0638
     47 H24         1.7922    4.8007    1.3994 H         1 <0>         0.0704
     48 H25         1.0452    3.3710    2.1518 H         1 <0>         0.0590
     49 H26         4.1401    4.8790    0.5185 H         1 <0>         0.0746
     50 H27         5.8774    4.6472    0.2083 H         1 <0>         0.0555
     51 H28         5.1782    6.2838    0.1766 H         1 <0>         0.0581
@<TRIPOS>BOND
     1    1    2 1
     2    1   27 1
     3    1   28 1
     4    1   29 1
     5    2    3 2
     6    2   30 1
     7    3    9 1
     8    3    4 1
     9    4    5 2
    10    4    6 1
    11    6    7 1
    12    6   31 1
    13    6   32 1
    14    7    8 1
    15    7   14 1
    16    7    9 1
    17    9   10 1
    18    9   26 1
    19   10   11 1
    20   10   33 1
    21   10   34 1
    22   11   12 1
    23   11   35 1
    24   11   36 1
    25   12   13 1
    26   12   24 1
    27   12   14 1
    28   14   15 1
    29   14   16 1
    30   16   17 1
    31   16   37 1
    32   16   38 1
    33   17   18 1
    34   17   39 1
    35   17   40 1
    36   18   24 1
    37   18   19 2
    38   19   20 1
    39   19   41 1
    40   20   21 2
    41   20   22 1
    42   22   23 1
    43   22   42 1
    44   22   43 1
    45   23   24 1
    46   23   44 1
    47   23   45 1
    48   24   25 1
    49   25   46 1
    50   25   47 1
    51   25   48 1
    52   26   49 1
    53   26   50 1
    54   26   51 1
@<TRIPOS>MOLECULE
ZINC04646295
   62    67     0     0     0
SMALL
USER_CHARGES

@<TRIPOS>ATOM
      1 C1          1.8779    2.5801   -1.5983 C.3       1 <0>        -0.1233
      2 C2          3.2866    1.9842   -1.6346 C.3       1 <0>         0.1351
      3 C3          3.4076    0.7479   -2.5497 C.3       1 <0>        -0.1864
      4 C4          4.8480    0.2106   -2.4192 C.3       1 <0>         0.2888
      5 C5          5.1320    0.0426   -0.8865 C.3       1 <0>        -0.1062
      6 H1          5.9084   -0.6741   -0.6187 H         1 <0>         0.1205
      7 C6          3.8509    0.0356   -0.0417 C.3       1 <0>        -0.1319
      8 C7          3.8008    1.5573   -0.2337 C.3       1 <0>         0.0939
      9 C8          5.3374    1.5171   -0.4481 C.3       1 <0>        -0.1749
     10 C9          5.5531    2.2812   -1.7811 C.3       1 <0>         0.2483
     11 H2          6.3850    2.9838   -1.7334 H         1 <0>         0.1631
     12 O1          4.2932    2.9279   -2.0728 O.3       1 <0>        -0.3523
     13 O2          5.7392    1.2646   -2.7922 O.3       1 <0>        -0.3782
     14 C10         6.2681    1.8476    0.7204 C.3       1 <0>         0.1117
     15 O3          7.6425    1.8712    0.2528 O.3       1 <0>        -0.3487
     16 C11         8.5942    2.1492    1.1648 C.2       1 <0>         0.5123
     17 O4          8.2843    2.3661    2.3191 O.2       1 <0>        -0.5000
     18 C12        10.0146    2.1904    0.7611 C.ar      1 <0>        -0.1286
     19 C13        10.3748    1.9360   -0.5637 C.ar      1 <0>        -0.0612
     20 C14        11.7026    1.9818   -0.9351 C.ar      1 <0>        -0.1323
     21 C15        12.6775    2.2677    0.0043 C.ar      1 <0>        -0.0817
     22 C16        12.3280    2.5152    1.3200 C.ar      1 <0>        -0.1320
     23 C17        11.0036    2.4783    1.7038 C.ar      1 <0>        -0.0541
     24 O5          3.3090    2.3260    0.8659 O.3       1 <0>        -0.3089
     25 C18         3.6815    1.8129    2.1466 C.3       1 <0>         0.2561
     26 H3          4.7030    1.4350    2.1036 H         1 <0>         0.0756
     27 C19         3.5937    2.9302    3.1894 C.3       1 <0>         0.0574
     28 H4          2.5822    3.3361    3.2041 H         1 <0>         0.0893
     29 C20         3.9360    2.3587    4.5688 C.3       1 <0>         0.0432
     30 H5          3.8211    3.1359    5.3243 H         1 <0>         0.0757
     31 C21         2.9854    1.1982    4.8786 C.3       1 <0>         0.0846
     32 H6          3.2573    0.7499    5.8342 H         1 <0>         0.0853
     33 C22         3.0967    0.1478    3.7705 C.3       1 <0>         0.1118
     34 H7          4.1105   -0.2519    3.7490 H         1 <0>         0.0894
     35 O6          2.7959    0.7523    2.5110 O.3       1 <0>        -0.3677
     36 C23         2.1066   -0.9868    4.0413 C.3       1 <0>         0.0876
     37 O7          2.3145   -2.0366    3.0944 O.3       1 <0>        -0.5674
     38 O8          1.6432    1.6845    4.9426 O.3       1 <0>        -0.5408
     39 O9          5.2843    1.8852    4.5688 O.3       1 <0>        -0.5519
     40 O10         4.5206    3.9663    2.8584 O.3       1 <0>        -0.5487
     41 O11         5.0599   -0.9935   -3.1591 O.3       1 <0>        -0.5149
     42 H8          1.8922    3.5125   -1.0338 H         1 <0>         0.0793
     43 H9          1.5402    2.7766   -2.6159 H         1 <0>         0.0712
     44 H10         1.1977    1.8758   -1.1193 H         1 <0>         0.0808
     45 H11         2.6976   -0.0166   -2.2344 H         1 <0>         0.1028
     46 H12         3.2113    1.0324   -3.5835 H         1 <0>         0.0989
     47 H13         4.0125   -0.2682    0.9925 H         1 <0>         0.1110
     48 H14         3.0209   -0.4907   -0.5131 H         1 <0>         0.0949
     49 H15         6.0064    2.8239    1.1285 H         1 <0>         0.0998
     50 H16         6.1611    1.0892    1.4959 H         1 <0>         0.0818
     51 H17         9.6152    1.7083   -1.2970 H         1 <0>         0.1391
     52 H18        11.9821    1.7899   -1.9605 H         1 <0>         0.1334
     53 H19        13.7159    2.2982   -0.2910 H         1 <0>         0.1310
     54 H20        13.0940    2.7374    2.0482 H         1 <0>         0.1341
     55 H21        10.7321    2.6720    2.7310 H         1 <0>         0.1378
     56 H22         2.2612   -1.3710    5.0496 H         1 <0>         0.0633
     57 H23         1.0880   -0.6101    3.9483 H         1 <0>         0.0674
     58 H24         1.7200   -2.7909    3.2066 H         1 <0>         0.3839
     59 H25         1.4998    2.3549    5.6247 H         1 <0>         0.3820
     60 H26         5.9408    2.5675    4.3725 H         1 <0>         0.3943
     61 H27         4.5188    4.7085    3.4784 H         1 <0>         0.3845
     62 H28         4.8970   -0.9057   -4.1082 H         1 <0>         0.3910
@<TRIPOS>BOND
     1    1    2 1
     2    1   42 1
     3    1   43 1
     4    1   44 1
     5    2    8 1
     6    2   12 1
     7    2    3 1
     8    3    4 1
     9    3   45 1
    10    3   46 1
    11    4   13 1
    12    4    5 1
    13    4   41 1
    14    5    6 1
    15    5    9 1
    16    5    7 1
    17    7    8 1
    18    7   47 1
    19    7   48 1
    20    8    9 1
    21    8   24 1
    22    9   10 1
    23    9   14 1
    24   10   11 1
    25   10   12 1
    26   10   13 1
    27   14   15 1
    28   14   49 1
    29   14   50 1
    30   15   16 1
    31   16   17 2
    32   16   18 1
    33   18   23 ar
    34   18   19 ar
    35   19   20 ar
    36   19   51 1
    37   20   21 ar
    38   20   52 1
    39   21   22 ar
    40   21   53 1
    41   22   23 ar
    42   22   54 1
    43   23   55 1
    44   24   25 1
    45   25   26 1
    46   25   35 1
    47   25   27 1
    48   27   28 1
    49   27   29 1
    50   27   40 1
    51   29   30 1
    52   29   31 1
    53   29   39 1
    54   31   32 1
    55   31   33 1
    56   31   38 1
    57   33   34 1
    58   33   35 1
    59   33   36 1
    60   36   37 1
    61   36   56 1
    62   36   57 1
    63   37   58 1
    64   38   59 1
    65   39   60 1
    66   40   61 1
    67   41   62 1
