@<TRIPOS>MOLECULE
ZINC01703370
   39    39     0     0     0
SMALL
USER_CHARGES

@<TRIPOS>ATOM
      1 C1          3.2791   -2.7126   -1.5303 C.3       1 <0>        -0.1726
      2 C2          2.5495   -2.1794   -0.3243 C.2       1 <0>         0.5099
      3 O1          1.7315   -2.8711    0.2444 O.2       1 <0>        -0.5243
      4 N1          2.8059   -0.9339    0.1222 N.am      1 <0>        -0.7241
      5 C3          2.0966   -0.4155    1.2946 C.3       1 <0>         0.1195
      6 H1          1.0774   -0.8017    1.3050 H         1 <0>         0.0979
      7 C4          2.8239   -0.8557    2.5688 C.3       1 <0>         0.1014
      8 H2          3.8581   -0.5130    2.5368 H         1 <0>         0.0655
      9 C5          2.1187   -0.2438    3.7832 C.3       1 <0>        -0.1474
     10 C6          2.0848    1.2790    3.6302 C.3       1 <0>         0.2535
     11 O2          1.4223    1.6192    2.4105 O.3       1 <0>        -0.3759
     12 C7          2.0636    1.1140    1.2377 C.3       1 <0>         0.0645
     13 H3          3.0824    1.4981    1.1863 H         1 <0>         0.1201
     14 C8          1.2864    1.5618   -0.0018 C.3       1 <0>         0.0945
     15 H4          1.8231    1.2523   -0.8987 H         1 <0>         0.0658
     16 C9          1.1449    3.0852    0.0077 C.3       1 <0>         0.1229
     17 H5          0.6082    3.3946    0.9045 H         1 <0>         0.1200
     18 C10         0.3677    3.5330   -1.2318 C.3       1 <0>         0.0483
     19 O3          0.1344    4.9412   -1.1648 O.3       1 <0>        -0.5624
     20 O4          2.4423    3.6841   -0.0015 O.3       1 <0>        -0.5194
     21 O5         -0.0110    0.9628    0.0073 O.3       1 <0>        -0.5537
     22 C11         3.4937    1.8131    3.6027 C.2       1 <0>         0.4246
     23 O6          3.8619    2.4991    2.6787 O.co2     1 <0>        -0.6049
     24 O7          1.3789    1.8531    4.7321 O.3       1 <0>        -0.5276
     25 O8          2.7954   -2.2810    2.6674 O.3       1 <0>        -0.5468
     26 H6          4.3511   -2.7191   -1.3329 H         1 <0>         0.0859
     27 H7          2.9420   -3.7278   -1.7394 H         1 <0>         0.0894
     28 H8          3.0720   -2.0764   -2.3909 H         1 <0>         0.0837
     29 H9          3.4601   -0.3806   -0.3326 H         1 <0>         0.3984
     30 H10         2.6622   -0.5067    4.6907 H         1 <0>         0.0913
     31 H11         1.0999   -0.6266    3.8439 H         1 <0>         0.0750
     32 H12         0.9464    3.3027   -2.1263 H         1 <0>         0.0415
     33 H13        -0.5868    3.0081   -1.2714 H         1 <0>         0.0624
     34 H14        -0.3548    5.2952   -1.9200 H         1 <0>         0.3733
     35 H15         2.9772    3.4520   -0.7729 H         1 <0>         0.3618
     36 H16         0.0021   -0.0041    0.0020 H         1 <0>         0.3781
     37 H17         1.3175    2.8177    4.7003 H         1 <0>         0.3805
     38 H18         3.2329   -2.6295    3.4562 H         1 <0>         0.3730
     39 O9          4.3397    1.5267    4.6047 O.co2     1 <0>        -0.7436
@<TRIPOS>BOND
     1    1    2 1
     2    1   26 1
     3    1   27 1
     4    1   28 1
     5    2    3 2
     6    2    4 am
     7    4    5 1
     8    4   29 1
     9    5    6 1
    10    5   12 1
    11    5    7 1
    12    7    8 1
    13    7    9 1
    14    7   25 1
    15    9   10 1
    16    9   30 1
    17    9   31 1
    18   10   11 1
    19   10   22 1
    20   10   24 1
    21   11   12 1
    22   12   13 1
    23   12   14 1
    24   14   15 1
    25   14   16 1
    26   14   21 1
    27   16   17 1
    28   16   18 1
    29   16   20 1
    30   18   19 1
    31   18   32 1
    32   18   33 1
    33   19   34 1
    34   20   35 1
    35   21   36 1
    36   22   23 2
    37   22   39 1
    38   24   37 1
    39   25   38 1
@<TRIPOS>MOLECULE
ZINC02047891
   40    40     0     0     0
SMALL
USER_CHARGES

@<TRIPOS>ATOM
      1 C1         -5.9096    5.7253   -1.3964 C.3       1 <0>        -0.1613
      2 C2         -4.5374    6.0746   -0.8166 C.3       1 <0>        -0.1148
      3 C3         -4.4227    5.5071    0.5996 C.3       1 <0>        -0.1043
      4 C4         -5.5828    6.0249    1.4521 C.3       1 <0>        -0.1116
      5 C5         -5.4605    7.5416    1.6124 C.3       1 <0>        -0.1508
      6 C6         -4.4735    4.0020    0.5432 C.2       1 <0>         0.5080
      7 O1         -5.3512    3.4025    1.1275 O.2       1 <0>        -0.5009
      8 N1         -3.5436    3.3221   -0.1564 N.am      1 <0>        -0.6713
      9 C7         -3.5307    1.9214   -0.1275 C.ar      1 <0>         0.0973
     10 C8         -4.7189    1.2203   -0.0365 C.ar      1 <0>        -0.0692
     11 C9         -4.7013   -0.1767   -0.0017 C.ar      1 <0>        -0.1068
     12 C10        -3.4832   -0.8599   -0.0650 C.ar      1 <0>        -0.0730
     13 C11        -2.3026   -0.1573   -0.1614 C.ar      1 <0>        -0.1208
     14 C12        -2.3177    1.2320   -0.1961 C.ar      1 <0>         0.1047
     15 N2         -1.1189    1.9395   -0.2938 N.am      1 <0>        -0.6680
     16 C13        -0.0933    1.4325   -1.0062 C.2       1 <0>         0.5037
     17 O2         -0.1806    0.3237   -1.4899 O.2       1 <0>        -0.5212
     18 C14         1.1595    2.2456   -1.2069 C.3       1 <0>        -0.1696
     19 C15        -5.9655   -0.9289    0.1010 C.2       1 <0>         0.4903
     20 O3         -7.0236   -0.3342    0.1559 O.co2     1 <0>        -0.6270
     21 H1         -5.9565    6.0458   -2.4372 H         1 <0>         0.0564
     22 H2         -6.0638    4.6477   -1.3408 H         1 <0>         0.0592
     23 H3         -6.6858    6.2334   -0.8243 H         1 <0>         0.0626
     24 H4         -4.4218    7.1580   -0.7844 H         1 <0>         0.0760
     25 H5         -3.7574    5.6445   -1.4448 H         1 <0>         0.0630
     26 H6         -3.4777    5.8224    1.0419 H         1 <0>         0.0962
     27 H7         -6.5275    5.7862    0.9637 H         1 <0>         0.0767
     28 H8         -5.5516    5.5521    2.4338 H         1 <0>         0.0714
     29 H9         -4.4779    7.7863    2.0156 H         1 <0>         0.0524
     30 H10        -5.5844    8.0208    0.6413 H         1 <0>         0.0555
     31 H11        -6.2323    7.8982    2.2946 H         1 <0>         0.0563
     32 H12        -2.8832    3.8025   -0.6799 H         1 <0>         0.4000
     33 H13        -5.6582    1.7511    0.0122 H         1 <0>         0.1498
     34 H14        -3.4680   -1.9395   -0.0379 H         1 <0>         0.1358
     35 H15        -1.3628   -0.6872   -0.2097 H         1 <0>         0.1381
     36 H16        -1.0237    2.7963    0.1510 H         1 <0>         0.4028
     37 H17         1.0616    2.8465   -2.1111 H         1 <0>         0.0949
     38 H18         1.3083    2.9015   -0.3492 H         1 <0>         0.0795
     39 H19         2.0147    1.5771   -1.3058 H         1 <0>         0.0950
     40 O4         -5.9473   -2.2759    0.1339 O.co2     1 <0>        -0.7551
@<TRIPOS>BOND
     1    1    2 1
     2    1   21 1
     3    1   22 1
     4    1   23 1
     5    2    3 1
     6    2   24 1
     7    2   25 1
     8    3    4 1
     9    3    6 1
    10    3   26 1
    11    4    5 1
    12    4   27 1
    13    4   28 1
    14    5   29 1
    15    5   30 1
    16    5   31 1
    17    6    7 2
    18    6    8 am
    19    8    9 1
    20    8   32 1
    21    9   14 ar
    22    9   10 ar
    23   10   11 ar
    24   10   33 1
    25   11   12 ar
    26   11   19 1
    27   12   13 ar
    28   12   34 1
    29   13   14 ar
    30   13   35 1
    31   14   15 1
    32   15   16 am
    33   15   36 1
    34   16   17 2
    35   16   18 1
    36   18   37 1
    37   18   38 1
    38   18   39 1
    39   19   20 2
    40   19   40 1
@<TRIPOS>MOLECULE
ZINC03581099
   23    23     0     0     0
SMALL
USER_CHARGES

@<TRIPOS>ATOM
      1 C1          1.1997    2.1131   -0.5688 C.3       1 <0>        -0.1692
      2 C2         -0.0963    1.3441   -0.5704 C.2       1 <0>         0.5021
      3 O1         -0.1559    0.2573   -1.1053 O.2       1 <0>        -0.5266
      4 N1         -1.1906    1.8666    0.0178 N.am      1 <0>        -0.6631
      5 C3         -2.4151    1.2017   -0.0701 C.ar      1 <0>         0.0525
      6 C4         -2.4516   -0.1873   -0.0714 C.ar      1 <0>        -0.0928
      7 C5         -3.6573   -0.8480   -0.1579 C.ar      1 <0>        -0.1127
      8 C6         -4.8486   -0.1220   -0.2448 C.ar      1 <0>        -0.0779
      9 C7         -4.8145    1.2754   -0.2437 C.ar      1 <0>        -0.1440
     10 C8         -3.6021    1.9340   -0.1509 C.ar      1 <0>         0.1741
     11 N2         -3.5638    3.3327   -0.1432 N.pl3     1 <0>        -0.8861
     12 C9         -6.1394   -0.8291   -0.3380 C.2       1 <0>         0.4890
     13 O2         -7.1744   -0.1971   -0.4135 O.co2     1 <0>        -0.6337
     14 H1          1.2463    2.7486   -1.4531 H         1 <0>         0.0933
     15 H2          1.2538    2.7322    0.3267 H         1 <0>         0.0782
     16 H3          2.0366    1.4148   -0.5787 H         1 <0>         0.0935
     17 H4         -1.1274    2.7046    0.5023 H         1 <0>         0.3995
     18 H5         -1.5325   -0.7504   -0.0040 H         1 <0>         0.1327
     19 H6         -3.6822   -1.9277   -0.1583 H         1 <0>         0.1316
     20 H7         -5.7331    1.8394   -0.3103 H         1 <0>         0.1290
     21 H8         -2.7129    3.7942   -0.0818 H         1 <0>         0.3855
     22 H9         -4.3882    3.8407   -0.1993 H         1 <0>         0.3979
     23 O3         -6.1710   -2.1763   -0.3394 O.co2     1 <0>        -0.7530
@<TRIPOS>BOND
     1    1    2 1
     2    1   14 1
     3    1   15 1
     4    1   16 1
     5    2    3 2
     6    2    4 am
     7    4    5 1
     8    4   17 1
     9    5   10 ar
    10    5    6 ar
    11    6    7 ar
    12    6   18 1
    13    7    8 ar
    14    7   19 1
    15    8    9 ar
    16    8   12 1
    17    9   10 ar
    18    9   20 1
    19   10   11 1
    20   11   21 1
    21   11   22 1
    22   12   13 2
    23   12   23 1
@<TRIPOS>MOLECULE
ZINC03581100
   24    24     0     0     0
SMALL
USER_CHARGES

@<TRIPOS>ATOM
      1 C1          1.1743    9.5296   -0.4290 C.3       1 <0>        -0.1667
      2 C2          0.8972    8.0774   -0.1364 C.2       1 <0>         0.5065
      3 O1         -0.1939    7.7382    0.2706 O.2       1 <0>        -0.5199
      4 N1          1.8617    7.1556   -0.3271 N.am      1 <0>        -0.6698
      5 C3          1.5805    5.7995   -0.1353 C.ar      1 <0>         0.0175
      6 C4          2.1869    5.1031    0.9113 C.ar      1 <0>         0.2088
      7 C5          1.9094    3.7614    1.1021 C.ar      1 <0>        -0.1596
      8 C6          1.0217    3.1042    0.2455 C.ar      1 <0>        -0.0499
      9 C7          0.4208    3.8025   -0.8053 C.ar      1 <0>        -0.1411
     10 C8          0.6956    5.1448   -0.9893 C.ar      1 <0>         0.1381
     11 O2          0.1060    5.8254   -2.0083 O.3       1 <0>        -0.4883
     12 C9          0.7241    1.6738    0.4468 C.2       1 <0>         0.4892
     13 O3          1.2507    1.0660    1.3576 O.co2     1 <0>        -0.6287
     14 N2          3.0754    5.7624    1.7681 N.pl3     1 <0>        -0.8786
     15 H1          2.1994    9.6398   -0.7826 H         1 <0>         0.0729
     16 H2          0.4854    9.8836   -1.1959 H         1 <0>         0.0939
     17 H3          1.0384   10.1156    0.4800 H         1 <0>         0.0913
     18 H4          2.7511    7.4330   -0.5975 H         1 <0>         0.3969
     19 H5          2.3778    3.2224    1.9122 H         1 <0>         0.1324
     20 H6         -0.2616    3.2948   -1.4708 H         1 <0>         0.1385
     21 H7          0.6532    5.8962   -2.8024 H         1 <0>         0.3771
     22 H8          3.4967    5.2786    2.4957 H         1 <0>         0.3984
     23 H9          3.2701    6.7032    1.6344 H         1 <0>         0.3897
     24 O4         -0.1318    1.0409   -0.3794 O.co2     1 <0>        -0.7486
@<TRIPOS>BOND
     1    1    2 1
     2    1   15 1
     3    1   16 1
     4    1   17 1
     5    2    3 2
     6    2    4 am
     7    4    5 1
     8    4   18 1
     9    5   10 ar
    10    5    6 ar
    11    6    7 ar
    12    6   14 1
    13    7    8 ar
    14    7   19 1
    15    8    9 ar
    16    8   12 1
    17    9   10 ar
    18    9   20 1
    19   10   11 1
    20   11   21 1
    21   12   13 2
    22   12   24 1
    23   14   22 1
    24   14   23 1
@<TRIPOS>MOLECULE
ZINC03581156
   31    31     0     0     0
SMALL
USER_CHARGES

@<TRIPOS>ATOM
      1 C1          1.1953    2.0970   -0.5782 C.3       1 <0>        -0.1702
      2 C2         -0.1039    1.3334   -0.5847 C.2       1 <0>         0.5046
      3 O1         -0.1680    0.2503   -1.1266 O.2       1 <0>        -0.5102
      4 N1         -1.1960    1.8567    0.0069 N.am      1 <0>        -0.6751
      5 C3         -2.4224    1.1973   -0.0844 C.ar      1 <0>         0.1237
      6 C4         -2.4642   -0.1919   -0.0946 C.ar      1 <0>        -0.1194
      7 C5         -3.6723   -0.8472   -0.1846 C.ar      1 <0>        -0.0540
      8 C6         -4.8609   -0.1158   -0.2660 C.ar      1 <0>        -0.1049
      9 C7         -4.8214    1.2811   -0.2560 C.ar      1 <0>        -0.0620
     10 C8         -3.6066    1.9344   -0.1597 C.ar      1 <0>         0.0668
     11 N2         -3.5630    3.3346   -0.1432 N.am      1 <0>        -0.6374
     12 C9         -4.5475    4.0324    0.4570 C.2       1 <0>         0.4805
     13 O2         -5.5117    3.4531    0.9108 O.2       1 <0>        -0.4966
     14 C10        -4.4504    5.5325    0.5643 C.3       1 <0>        -0.0190
     15 C11        -6.1545   -0.8174   -0.3628 C.2       1 <0>         0.4875
     16 O3         -7.1871   -0.1808   -0.4336 O.co2     1 <0>        -0.6294
     17 H1          1.2444    2.7380   -1.4585 H         1 <0>         0.0971
     18 H2          1.2519    2.7101    0.3212 H         1 <0>         0.0800
     19 H3          2.0292    1.3953   -0.5927 H         1 <0>         0.0995
     20 H4         -1.1295    2.6916    0.4961 H         1 <0>         0.4009
     21 H5         -1.5472   -0.7590   -0.0314 H         1 <0>         0.1440
     22 H6         -3.7013   -1.9267   -0.1918 H         1 <0>         0.1433
     23 H7         -5.7379    1.8490   -0.3187 H         1 <0>         0.1474
     24 H8         -2.8242    3.8018   -0.5636 H         1 <0>         0.4101
     25 H9         -3.5569    5.7993    1.1286 H         1 <0>         0.1612
     26 H10        -4.3922    5.9651   -0.4345 H         1 <0>         0.1641
     27 H11        -5.5974    7.0565    1.3389 H         1 <0>         0.4445
     28 H12        -6.4842    5.7629    0.7858 H         1 <0>         0.4473
     29 N3         -5.6359    6.0405    1.2768 N.4       1 <0>        -0.6299
     30 H13        -5.6539    5.6473    2.2252 H         1 <0>         0.4474
     31 O4         -6.1914   -2.1643   -0.3729 O.co2     1 <0>        -0.7415
@<TRIPOS>BOND
     1    1    2 1
     2    1   17 1
     3    1   18 1
     4    1   19 1
     5    2    3 2
     6    2    4 am
     7    4    5 1
     8    4   20 1
     9    5   10 ar
    10    5    6 ar
    11    6    7 ar
    12    6   21 1
    13    7    8 ar
    14    7   22 1
    15    8    9 ar
    16    8   15 1
    17    9   10 ar
    18    9   23 1
    19   10   11 1
    20   11   12 am
    21   11   24 1
    22   12   13 2
    23   12   14 1
    24   14   25 1
    25   14   26 1
    26   14   29 1
    27   15   16 2
    28   15   31 1
    29   27   29 1
    30   28   29 1
    31   29   30 1
@<TRIPOS>MOLECULE
ZINC03581157
   29    29     0     0     0
SMALL
USER_CHARGES

@<TRIPOS>ATOM
      1 C1          1.1953    2.0970   -0.5782 C.3       1 <0>        -0.1694
      2 C2         -0.1039    1.3334   -0.5847 C.2       1 <0>         0.5038
      3 O1         -0.1680    0.2503   -1.1266 O.2       1 <0>        -0.5208
      4 N1         -1.1960    1.8567    0.0069 N.am      1 <0>        -0.6685
      5 C3         -2.4224    1.1973   -0.0844 C.ar      1 <0>         0.1066
      6 C4         -2.4642   -0.1919   -0.0946 C.ar      1 <0>        -0.1200
      7 C5         -3.6723   -0.8472   -0.1846 C.ar      1 <0>        -0.0709
      8 C6         -4.8609   -0.1158   -0.2660 C.ar      1 <0>        -0.1058
      9 C7         -4.8214    1.2811   -0.2560 C.ar      1 <0>        -0.0684
     10 C8         -3.6066    1.9344   -0.1597 C.ar      1 <0>         0.0973
     11 N2         -3.5630    3.3346   -0.1432 N.am      1 <0>        -0.6701
     12 C9         -4.5475    4.0324    0.4570 C.2       1 <0>         0.4975
     13 O2         -5.5117    3.4531    0.9108 O.2       1 <0>        -0.4801
     14 C10        -4.4504    5.5325    0.5643 C.3       1 <0>         0.0656
     15 O3         -5.6063    6.0378    1.2356 O.3       1 <0>        -0.5444
     16 C11        -6.1545   -0.8174   -0.3628 C.2       1 <0>         0.4900
     17 O4         -7.1871   -0.1808   -0.4336 O.co2     1 <0>        -0.6261
     18 H1          1.2444    2.7380   -1.4585 H         1 <0>         0.0950
     19 H2          1.2519    2.7101    0.3212 H         1 <0>         0.0796
     20 H3          2.0292    1.3953   -0.5927 H         1 <0>         0.0951
     21 H4         -1.1295    2.6916    0.4961 H         1 <0>         0.4029
     22 H5         -1.5472   -0.7590   -0.0314 H         1 <0>         0.1381
     23 H6         -3.7013   -1.9267   -0.1918 H         1 <0>         0.1369
     24 H7         -5.7379    1.8490   -0.3187 H         1 <0>         0.1490
     25 H8         -2.8242    3.8018   -0.5636 H         1 <0>         0.4014
     26 H9         -3.5569    5.7993    1.1286 H         1 <0>         0.0771
     27 H10        -4.3922    5.9651   -0.4345 H         1 <0>         0.0778
     28 H11        -5.6114    6.9991    1.3403 H         1 <0>         0.3851
     29 O5         -6.1914   -2.1643   -0.3729 O.co2     1 <0>        -0.7544
@<TRIPOS>BOND
     1    1    2 1
     2    1   18 1
     3    1   19 1
     4    1   20 1
     5    2    3 2
     6    2    4 am
     7    4    5 1
     8    4   21 1
     9    5   10 ar
    10    5    6 ar
    11    6    7 ar
    12    6   22 1
    13    7    8 ar
    14    7   23 1
    15    8    9 ar
    16    8   16 1
    17    9   10 ar
    18    9   24 1
    19   10   11 1
    20   11   12 am
    21   11   25 1
    22   12   13 2
    23   12   14 1
    24   14   15 1
    25   14   26 1
    26   14   27 1
    27   15   28 1
    28   16   17 2
    29   16   29 1
@<TRIPOS>MOLECULE
ZINC03581810
   34    34     0     0     0
SMALL
USER_CHARGES

@<TRIPOS>ATOM
      1 C1         -6.9478    1.3578    0.8876 C.3       1 <0>        -0.1861
      2 C2         -5.8932    0.3260    1.2925 C.3       1 <0>         0.1370
      3 C3         -6.4345   -1.0826    1.0401 C.3       1 <0>        -0.1410
      4 C4         -5.5655    0.4877    2.7782 C.3       1 <0>        -0.1853
      5 O1         -4.6895    0.5299    0.5064 O.3       1 <0>        -0.3633
      6 C5         -4.0842    1.7276    0.6151 C.2       1 <0>         0.6668
      7 O2         -4.5490    2.5792    1.3467 O.2       1 <0>        -0.5460
      8 N1         -2.9627    1.9821   -0.0878 N.am      1 <0>        -0.6181
      9 C6         -2.2034    3.2409   -0.0636 C.3       1 <0>         0.1327
     10 C7         -0.9892    3.0616   -0.9991 C.3       1 <0>        -0.1533
     11 H1         -1.2022    3.4650   -1.9890 H         1 <0>         0.1321
     12 C8         -0.8212    1.5203   -1.0589 C.3       1 <0>         0.0343
     13 H2         -0.3430    1.2152   -1.9897 H         1 <0>         0.1557
     14 C9         -2.2944    1.0438   -1.0093 C.3       1 <0>         0.0920
     15 C10         0.2376    3.7092   -0.4104 C.2       1 <0>         0.4734
     16 O3          1.2240    3.0468   -0.1908 O.co2     1 <0>        -0.6255
     17 H3         -7.1812    1.2426   -0.1709 H         1 <0>         0.0611
     18 H4         -7.8513    1.2047    1.4777 H         1 <0>         0.0744
     19 H5         -6.5621    2.3613    1.0674 H         1 <0>         0.0873
     20 H6         -5.6832   -1.8177    1.3286 H         1 <0>         0.0663
     21 H7         -7.3381   -1.2358    1.6302 H         1 <0>         0.0841
     22 H8         -6.6680   -1.1979   -0.0184 H         1 <0>         0.0677
     23 H9         -5.1798    1.4912    2.9581 H         1 <0>         0.0873
     24 H10        -6.4690    0.3346    3.3684 H         1 <0>         0.0747
     25 H11        -4.8142   -0.2474    3.0667 H         1 <0>         0.0593
     26 H12        -1.8625    3.4487    0.9506 H         1 <0>         0.0849
     27 H13        -2.8280    4.0601   -0.4197 H         1 <0>         0.0934
     28 H14        -2.7447    1.0998   -2.0004 H         1 <0>         0.1090
     29 H15        -2.3511    0.0262   -0.6229 H         1 <0>         0.0990
     30 H16        -0.5568    1.2303    0.9621 H         1 <0>         0.4166
     31 H17         0.1195    0.0395    0.0184 H         1 <0>         0.4145
     32 N2         -0.0479    1.0410    0.1002 N.4       1 <0>        -0.6356
     33 H18         0.8544    1.5302    0.1296 H         1 <0>         0.4332
     34 O4          0.2345    5.0219   -0.1300 O.co2     1 <0>        -0.6826
@<TRIPOS>BOND
     1    1    2 1
     2    1   17 1
     3    1   18 1
     4    1   19 1
     5    2    3 1
     6    2    4 1
     7    2    5 1
     8    3   20 1
     9    3   21 1
    10    3   22 1
    11    4   23 1
    12    4   24 1
    13    4   25 1
    14    5    6 1
    15    6    7 2
    16    6    8 am
    17    8   14 1
    18    8    9 1
    19    9   10 1
    20    9   26 1
    21    9   27 1
    22   10   11 1
    23   10   12 1
    24   10   15 1
    25   12   13 1
    26   12   14 1
    27   12   32 1
    28   14   28 1
    29   14   29 1
    30   15   16 2
    31   15   34 1
    32   30   32 1
    33   31   32 1
    34   32   33 1
@<TRIPOS>MOLECULE
ZINC03832036
   50    51     0     0     0
SMALL
USER_CHARGES

@<TRIPOS>ATOM
      1 C1          0.3424    5.7425    4.3727 C.3       1 <0>        -0.1619
      2 C2          1.4573    5.8587    3.3313 C.3       1 <0>        -0.1324
      3 C3          0.8452    6.1466    1.9589 C.3       1 <0>         0.1471
      4 C4          1.9630    6.3862    0.9421 C.3       1 <0>        -0.1267
      5 C5          1.3527    6.7961   -0.3997 C.3       1 <0>        -0.1512
      6 N1          0.0366    5.0009    1.5348 N.pl3     1 <0>        -0.7388
      7 C6         -1.2933    4.8892    1.9555 C.ar      1 <0>         0.2119
      8 C7         -1.8465    5.8627    2.7668 C.ar      1 <0>        -0.1519
      9 C8         -3.1737    5.7444    3.1891 C.ar      1 <0>        -0.0620
     10 C9         -3.9379    4.6458    2.7854 C.ar      1 <0>        -0.1223
     11 C10        -3.3839    3.6813    1.9727 C.ar      1 <0>        -0.0863
     12 C11        -2.0649    3.7969    1.5514 C.ar      1 <0>         0.0439
     13 N2         -1.5080    2.8169    0.7274 N.am      1 <0>        -0.5474
     14 C12        -1.5406    2.8474   -0.6160 C.2       1 <0>         0.5168
     15 O1         -2.0598    3.7205   -1.2787 O.2       1 <0>        -0.5114
     16 C13        -0.8346    1.6346   -1.1812 C.3       1 <0>        -0.1592
     17 C14        -0.0127    1.0858    0.0080 C.3       1 <0>        -0.1073
     18 C15        -0.8109    1.6212    1.2174 C.3       1 <0>         0.1636
     19 C16        -1.8226    0.5749    1.6892 C.3       1 <0>         0.0792
     20 O2         -1.1298   -0.6031    2.1070 O.3       1 <0>        -0.5451
     21 C17         0.1400    1.9915    2.3574 C.3       1 <0>         0.0857
     22 O3          0.8515    0.8271    2.7814 O.3       1 <0>        -0.5454
     23 C18        -3.7667    6.7768    4.0594 C.2       1 <0>         0.4885
     24 O4         -3.1015    7.7313    4.4097 O.co2     1 <0>        -0.6293
     25 H1         -0.3293    4.9296    4.0967 H         1 <0>         0.0632
     26 H2          0.7784    5.5374    5.3504 H         1 <0>         0.0452
     27 H3         -0.2162    6.6776    4.4129 H         1 <0>         0.0706
     28 H4          2.0158    4.9236    3.2911 H         1 <0>         0.0562
     29 H5          2.1290    6.6716    3.6073 H         1 <0>         0.0654
     30 H6          0.2144    7.0334    2.0212 H         1 <0>         0.0837
     31 H7          2.6170    7.1806    1.3016 H         1 <0>         0.0746
     32 H8          2.5402    5.4705    0.8141 H         1 <0>         0.0607
     33 H9          0.6986    6.0017   -0.7592 H         1 <0>         0.0565
     34 H10         0.7755    7.7119   -0.2717 H         1 <0>         0.0566
     35 H11         2.1490    6.9668   -1.1241 H         1 <0>         0.0508
     36 H12         0.4231    4.3199    0.9624 H         1 <0>         0.3899
     37 H13        -1.2532    6.7100    3.0773 H         1 <0>         0.1406
     38 H14        -4.9636    4.5533    3.1105 H         1 <0>         0.1317
     39 H15        -3.9762    2.8334    1.6621 H         1 <0>         0.1140
     40 H16        -0.1751    1.9240   -1.9995 H         1 <0>         0.1022
     41 H17        -1.5580    0.8928   -1.5197 H         1 <0>         0.1036
     42 H18         0.0021   -0.0041    0.0020 H         1 <0>         0.1007
     43 H19         1.0005    1.4877    0.0005 H         1 <0>         0.0808
     44 H20        -2.3959    0.9750    2.5255 H         1 <0>         0.0521
     45 H21        -2.4984    0.3279    0.8705 H         1 <0>         0.0457
     46 H22        -1.7101   -1.3106    2.4196 H         1 <0>         0.3738
     47 H23         0.8484    2.7436    2.0098 H         1 <0>         0.0491
     48 H24        -0.4335    2.3915    3.1935 H         1 <0>         0.0518
     49 H25         1.4742    0.9878    3.5036 H         1 <0>         0.3738
     50 O5         -5.0462    6.6614    4.4661 O.co2     1 <0>        -0.7517
@<TRIPOS>BOND
     1    1    2 1
     2    1   25 1
     3    1   26 1
     4    1   27 1
     5    2    3 1
     6    2   28 1
     7    2   29 1
     8    3    4 1
     9    3    6 1
    10    3   30 1
    11    4    5 1
    12    4   31 1
    13    4   32 1
    14    5   33 1
    15    5   34 1
    16    5   35 1
    17    6    7 1
    18    6   36 1
    19    7   12 ar
    20    7    8 ar
    21    8    9 ar
    22    8   37 1
    23    9   10 ar
    24    9   23 1
    25   10   11 ar
    26   10   38 1
    27   11   12 ar
    28   11   39 1
    29   12   13 1
    30   13   18 1
    31   13   14 am
    32   14   15 2
    33   14   16 1
    34   16   17 1
    35   16   40 1
    36   16   41 1
    37   17   18 1
    38   17   42 1
    39   17   43 1
    40   18   19 1
    41   18   21 1
    42   19   20 1
    43   19   44 1
    44   19   45 1
    45   20   46 1
    46   21   22 1
    47   21   47 1
    48   21   48 1
    49   22   49 1
    50   23   24 2
    51   23   50 1
@<TRIPOS>MOLECULE
ZINC03833955
   23    23     0     0     0
SMALL
USER_CHARGES

@<TRIPOS>ATOM
      1 C1          1.2006    2.1184   -0.5390 C.3       1 <0>        -0.1673
      2 C2         -0.0957    1.3500   -0.5537 C.2       1 <0>         0.5117
      3 O1         -0.1538    0.2692   -1.1007 O.2       1 <0>        -0.5229
      4 N1         -1.1920    1.8665    0.0363 N.am      1 <0>        -0.6658
      5 C3         -2.4140    1.2025   -0.0607 C.ar      1 <0>         0.2056
      6 C4         -2.4500   -0.1887   -0.0619 C.ar      1 <0>        -0.1416
      7 C5         -3.6546   -0.8475   -0.1571 C.ar      1 <0>        -0.0051
      8 C6         -4.8432   -0.1172   -0.2531 C.ar      1 <0>        -0.1238
      9 C7         -4.8032    1.2801   -0.2521 C.ar      1 <0>        -0.0071
     10 C8         -3.5951    1.9323   -0.1504 C.ar      1 <0>        -0.0888
     11 N2         -3.5522    3.4119   -0.1426 N.pl3     1 <0>         0.0465
     12 O2         -4.5888    4.0511   -0.1210 O.2       1 <0>        -0.1554
     13 O3         -2.4803    3.9902   -0.1578 O.3       1 <0>        -0.1984
     14 C9         -6.1357   -0.8195   -0.3558 C.2       1 <0>         0.4930
     15 O4         -7.1677   -0.1836   -0.4391 O.co2     1 <0>        -0.6189
     16 H1          1.2505    2.7635   -1.4162 H         1 <0>         0.1003
     17 H2          1.2516    2.7276    0.3634 H         1 <0>         0.0848
     18 H3          2.0372    1.4198   -0.5536 H         1 <0>         0.0975
     19 H4         -1.1306    2.7001    0.5284 H         1 <0>         0.4217
     20 H5         -1.5315   -0.7521    0.0123 H         1 <0>         0.1575
     21 H6         -3.6818   -1.9271   -0.1573 H         1 <0>         0.1557
     22 H7         -5.7193    1.8472   -0.3261 H         1 <0>         0.1623
     23 O5         -6.1724   -2.1665   -0.3571 O.co2     1 <0>        -0.7416
@<TRIPOS>BOND
     1    1    2 1
     2    1   16 1
     3    1   17 1
     4    1   18 1
     5    2    3 2
     6    2    4 am
     7    4    5 1
     8    4   19 1
     9    5   10 ar
    10    5    6 ar
    11    6    7 ar
    12    6   20 1
    13    7    8 ar
    14    7   21 1
    15    8    9 ar
    16    8   14 1
    17    9   10 ar
    18    9   22 1
    19   10   11 1
    20   11   12 2
    21   11   13 1
    22   14   15 2
    23   14   23 1
@<TRIPOS>MOLECULE
ZINC03833956
   51    51     0     0     0
SMALL
USER_CHARGES

@<TRIPOS>ATOM
      1 C1          4.0287    0.6920    1.0341 C.3       1 <0>        -0.1421
      2 C2          4.0333    2.2036    0.7979 C.3       1 <0>        -0.1429
      3 C3          4.2799    2.4873   -0.6853 C.3       1 <0>        -0.0803
      4 C4          5.5576    1.7759   -1.1351 C.3       1 <0>        -0.1119
      5 C5          6.7572    2.3604   -0.3865 C.3       1 <0>        -0.1521
      6 C6          3.0949    1.9749   -1.5064 C.3       1 <0>         0.1554
      7 H1          2.6106    1.1563   -0.9738 H         1 <0>         0.1216
      8 C7          2.0914    3.1105   -1.7171 C.3       1 <0>        -0.0993
      9 H2          2.6190    4.0527   -1.8658 H         1 <0>         0.1048
     10 C8          1.1983    2.8066   -2.9377 C.3       1 <0>         0.1306
     11 H3          1.1589    1.7334   -3.1239 H         1 <0>         0.1114
     12 C9         -0.1972    3.3405   -2.5295 C.3       1 <0>        -0.1050
     13 C10        -0.2768    2.9751   -1.0264 C.3       1 <0>        -0.1604
     14 H4         -0.5563    1.9288   -0.9026 H         1 <0>         0.0906
     15 C11         1.1536    3.2176   -0.5019 C.3       1 <0>         0.1169
     16 H5          1.2258    4.2114   -0.0601 H         1 <0>         0.0889
     17 O1          1.4941    2.2251    0.4681 O.3       1 <0>        -0.5535
     18 C12        -1.2583    3.8698   -0.3145 C.2       1 <0>         0.4631
     19 O2         -0.8758    4.6123    0.5586 O.co2     1 <0>        -0.6288
     20 C13         1.9210    2.9614   -5.2869 C.cat     1 <0>         0.7312
     21 N1          1.7920    1.6011   -5.4374 N.pl3     1 <0>        -0.8168
     22 N2          2.2904    3.7397   -6.3584 N.pl3     1 <0>        -0.8186
     23 N3          3.5719    1.4971   -2.8065 N.am      1 <0>        -0.7330
     24 C14         4.2069    2.3416   -3.6432 C.2       1 <0>         0.4995
     25 O3          4.3835    3.4970   -3.3198 O.2       1 <0>        -0.5261
     26 C15         4.6975    1.8500   -4.9807 C.3       1 <0>        -0.1860
     27 H6          3.3148    0.2209    0.3586 H         1 <0>         0.0528
     28 H7          5.0251    0.2919    0.8464 H         1 <0>         0.0423
     29 H8          3.7431    0.4863    2.0657 H         1 <0>         0.0492
     30 H9          4.8243    2.6617    1.3918 H         1 <0>         0.0509
     31 H10         3.0701    2.6203    1.0923 H         1 <0>         0.1126
     32 H11         4.3894    3.5612   -0.8365 H         1 <0>         0.0741
     33 H12         5.4767    0.7110   -0.9167 H         1 <0>         0.0601
     34 H13         5.6942    1.9176   -2.2071 H         1 <0>         0.0514
     35 H14         6.7861    3.4401   -0.5332 H         1 <0>         0.0518
     36 H15         6.6641    2.1405    0.6770 H         1 <0>         0.0569
     37 H16         7.6760    1.9169   -0.7701 H         1 <0>         0.0471
     38 H17        -0.9832    2.8364   -3.0918 H         1 <0>         0.0835
     39 H18        -0.2534    4.4202   -2.6680 H         1 <0>         0.0817
     40 H19         0.9716    2.2734    1.2803 H         1 <0>         0.3885
     41 H20         1.4609    1.0610   -4.7028 H         1 <0>         0.4344
     42 H21         2.0324    1.1811   -6.2781 H         1 <0>         0.4352
     43 H22         2.3813    4.6995   -6.2522 H         1 <0>         0.4374
     44 H23         2.4601    3.3289   -7.2205 H         1 <0>         0.4316
     45 H24         3.4306    0.5729   -3.0651 H         1 <0>         0.3977
     46 H25         3.9157    1.9878   -5.7275 H         1 <0>         0.0747
     47 H26         5.5829    2.4148   -5.2728 H         1 <0>         0.0972
     48 H27         4.9490    0.7918   -4.9089 H         1 <0>         0.0859
     49 O4         -2.5576    3.8418   -0.6501 O.co2     1 <0>        -0.7558
     50 N4          1.7051    3.5831   -4.1212 N.pl3     1 <0>        -0.6526
     51 H28         1.8857    4.5902   -4.0353 H         1 <0>         0.4540
@<TRIPOS>BOND
     1    1    2 1
     2    1   27 1
     3    1   28 1
     4    1   29 1
     5    2    3 1
     6    2   30 1
     7    2   31 1
     8    3    4 1
     9    3    6 1
    10    3   32 1
    11    4    5 1
    12    4   33 1
    13    4   34 1
    14    5   35 1
    15    5   36 1
    16    5   37 1
    17    6    7 1
    18    6    8 1
    19    6   23 1
    20    8    9 1
    21    8   15 1
    22    8   10 1
    23   10   11 1
    24   10   12 1
    25   10   50 1
    26   12   13 1
    27   12   38 1
    28   12   39 1
    29   13   14 1
    30   13   15 1
    31   13   18 1
    32   15   16 1
    33   15   17 1
    34   17   40 1
    35   18   19 2
    36   18   49 1
    37   20   21 1
    38   20   22 1
    39   20   50 2
    40   21   41 1
    41   21   42 1
    42   22   43 1
    43   22   44 1
    44   23   24 am
    45   23   45 1
    46   24   25 2
    47   24   26 1
    48   26   46 1
    49   26   47 1
    50   26   48 1
    51   50   51 1
@<TRIPOS>MOLECULE
ZINC03833957
   28    28     0     0     0
SMALL
USER_CHARGES

@<TRIPOS>ATOM
      1 C1          1.1638    1.9435   -0.3105 C.3       1 <0>        -0.1678
      2 C2         -0.1559    1.2171   -0.3540 C.2       1 <0>         0.4995
      3 O1         -0.2252    0.1150   -0.8556 O.2       1 <0>        -0.5343
      4 N1         -1.2601    1.7945    0.1596 N.am      1 <0>        -0.6512
      5 C3         -2.4998    1.1676    0.0295 C.ar      1 <0>         0.1151
      6 C4         -2.5826   -0.2179    0.0536 C.ar      1 <0>        -0.1186
      7 C5         -3.8044   -0.8426   -0.0740 C.ar      1 <0>        -0.0876
      8 C6         -4.9693   -0.0847   -0.2286 C.ar      1 <0>        -0.1031
      9 C7         -4.8960    1.3095   -0.2545 C.ar      1 <0>        -0.1340
     10 C8         -3.6633    1.9383   -0.1199 C.ar      1 <0>         0.1084
     11 N2         -3.5839    3.3070   -0.1379 N.2       1 <0>        -0.6361
     12 C9         -4.1368    3.9835   -1.1172 C.2       1 <0>         0.6431
     13 N3         -4.6717    3.3200   -2.1937 N.pl3     1 <0>        -0.8831
     14 N4         -4.1803    5.3550   -1.0652 N.pl3     1 <0>        -0.8450
     15 C10        -6.2747   -0.7576   -0.3648 C.2       1 <0>         0.4894
     16 O2         -7.2867   -0.0987   -0.4992 O.co2     1 <0>        -0.6356
     17 H1          1.2765    2.5465   -1.2115 H         1 <0>         0.0912
     18 H2          1.1935    2.5908    0.5660 H         1 <0>         0.0787
     19 H3          1.9759    1.2186   -0.2545 H         1 <0>         0.0920
     20 H4         -1.1930    2.6458    0.6197 H         1 <0>         0.4109
     21 H5         -1.6863   -0.8084    0.1731 H         1 <0>         0.1343
     22 H6         -3.8624   -1.9208   -0.0541 H         1 <0>         0.1313
     23 H7         -5.7941    1.8973   -0.3738 H         1 <0>         0.1262
     24 H8         -4.6978    2.3504   -2.2017 H         1 <0>         0.4207
     25 H9         -5.0234    3.8208   -2.9463 H         1 <0>         0.3907
     26 H10        -3.8024    5.8237   -0.3047 H         1 <0>         0.4165
     27 H11        -4.5889    5.8550   -1.7890 H         1 <0>         0.4030
     28 O3         -6.3450   -2.1030   -0.3402 O.co2     1 <0>        -0.7545
@<TRIPOS>BOND
     1    1    2 1
     2    1   17 1
     3    1   18 1
     4    1   19 1
     5    2    3 2
     6    2    4 am
     7    4    5 1
     8    4   20 1
     9    5   10 ar
    10    5    6 ar
    11    6    7 ar
    12    6   21 1
    13    7    8 ar
    14    7   22 1
    15    8    9 ar
    16    8   15 1
    17    9   10 ar
    18    9   23 1
    19   10   11 1
    20   11   12 2
    21   12   13 1
    22   12   14 1
    23   13   24 1
    24   13   25 1
    25   14   26 1
    26   14   27 1
    27   15   16 2
    28   15   28 1
@<TRIPOS>MOLECULE
ZINC03833958
   29    29     0     0     0
SMALL
USER_CHARGES

@<TRIPOS>ATOM
      1 C1          0.8389    0.2068   -4.2603 C.3       1 <0>        -0.1753
      2 C2          0.0016    0.4717   -3.0356 C.2       1 <0>         0.5102
      3 O1         -0.7268   -0.3947   -2.6000 O.2       1 <0>        -0.4945
      4 N1          0.0621    1.6714   -2.4245 N.am      1 <0>        -0.7536
      5 C3         -0.7519    1.9289   -1.2340 C.3       1 <0>         0.1328
      6 H1         -1.7107    1.4185   -1.3251 H         1 <0>         0.1247
      7 C4         -0.9805    3.4378   -1.0868 C.3       1 <0>         0.0255
      8 H2         -0.0397    3.9301   -0.8406 H         1 <0>         0.1533
      9 C5         -1.9900    3.6655    0.0402 C.3       1 <0>        -0.0838
     10 C6         -1.5815    2.8966    1.2629 C.2       1 <0>        -0.1295
     11 C7         -0.7144    1.9061    1.2489 C.2       1 <0>        -0.1759
     12 C8         -0.0173    1.4248    0.0099 C.3       1 <0>         0.1380
     13 H3          1.0060    1.8001    0.0021 H         1 <0>         0.0714
     14 O2          0.0021   -0.0041    0.0020 O.3       1 <0>        -0.5400
     15 C9         -2.1837    3.2715    2.5498 C.2       1 <0>         0.4768
     16 O3         -1.8772    2.6722    3.5617 O.co2     1 <0>        -0.6153
     17 H4          1.8938    0.3225   -4.0112 H         1 <0>         0.0915
     18 H5          0.6578   -0.8091   -4.6114 H         1 <0>         0.0980
     19 H6          0.5708    0.9153   -5.0440 H         1 <0>         0.0875
     20 H7          0.6446    2.3643   -2.7729 H         1 <0>         0.3960
     21 H8         -2.9754    3.3311   -0.2843 H         1 <0>         0.0987
     22 H9         -2.0317    4.7282    0.2788 H         1 <0>         0.1157
     23 H10        -0.4922    1.4112    2.1827 H         1 <0>         0.1373
     24 H11         0.4564   -0.3954    0.7607 H         1 <0>         0.3882
     25 H12        -1.6833    4.9768   -2.2598 H         1 <0>         0.4431
     26 H13        -0.8895    3.7904   -3.1131 H         1 <0>         0.4288
     27 O4         -3.0761    4.2802    2.6081 O.co2     1 <0>        -0.7513
     28 N2         -1.5321    3.9730   -2.3440 N.4       1 <0>        -0.6385
     29 H14        -2.4293    3.5144   -2.5412 H         1 <0>         0.4400
@<TRIPOS>BOND
     1    1    2 1
     2    1   17 1
     3    1   18 1
     4    1   19 1
     5    2    3 2
     6    2    4 am
     7    4    5 1
     8    4   20 1
     9    5    6 1
    10    5   12 1
    11    5    7 1
    12    7    8 1
    13    7    9 1
    14    7   28 1
    15    9   10 1
    16    9   21 1
    17    9   22 1
    18   10   11 2
    19   10   15 1
    20   11   12 1
    21   11   23 1
    22   12   13 1
    23   12   14 1
    24   14   24 1
    25   15   16 2
    26   15   27 1
    27   25   28 1
    28   26   28 1
    29   28   29 1
@<TRIPOS>MOLECULE
ZINC03833959
   39    39     0     0     0
SMALL
USER_CHARGES

@<TRIPOS>ATOM
      1 C1         -1.5630    0.0424   -2.5427 C.3       1 <0>        -0.1713
      2 C2         -1.8088    1.1854   -1.5559 C.3       1 <0>         0.1224
      3 N1         -0.5241    1.7056   -1.0813 N.am      1 <0>        -0.6199
      4 C3          0.0323    1.2350    0.1896 C.3       1 <0>         0.1015
      5 C4         -1.0946    1.0770    1.2123 C.3       1 <0>        -0.1650
      6 C5          0.7205   -0.1148   -0.0235 C.3       1 <0>        -0.1826
      7 C6          0.1460    2.6170   -1.8140 C.2       1 <0>         0.7330
      8 O1         -0.3855    3.1308   -2.7793 O.2       1 <0>        -0.5678
      9 N2          1.4053    2.9589   -1.4766 N.am      1 <0>        -0.6289
     10 C7          2.2026    2.4208   -0.3586 C.3       1 <0>         0.0617
     11 C8          3.6855    2.5892   -0.7382 C.3       1 <0>         0.0331
     12 H1          4.1711    1.6159   -0.8094 H         1 <0>         0.1527
     13 C9          3.6698    3.2838   -2.1195 C.3       1 <0>         0.0717
     14 C10         2.2739    3.9472   -2.1567 C.3       1 <0>         0.1035
     15 C11         4.7590    4.3216   -2.2074 C.2       1 <0>         0.4527
     16 O2          5.1409    4.8827   -1.2078 O.co2     1 <0>        -0.6380
     17 O3          3.7977    2.3238   -3.1702 O.3       1 <0>        -0.5346
     18 H2         -0.9853    0.4117   -3.3900 H         1 <0>         0.0599
     19 H3         -1.0098   -0.7544   -2.0454 H         1 <0>         0.0561
     20 H4         -2.5189   -0.3446   -2.8958 H         1 <0>         0.0677
     21 H5         -2.3865    0.8161   -0.7086 H         1 <0>         0.0855
     22 H6         -2.3620    1.9822   -2.0532 H         1 <0>         0.0834
     23 H7          0.7588    1.9590    0.5585 H         1 <0>         0.1023
     24 H8         -1.8212    0.3530    0.8435 H         1 <0>         0.0677
     25 H9         -0.6807    0.7269    2.1579 H         1 <0>         0.0721
     26 H10        -1.5849    2.0386    1.3642 H         1 <0>         0.0637
     27 H11         1.5234   -0.0022   -0.7521 H         1 <0>         0.0664
     28 H12         1.1344   -0.4649    0.9221 H         1 <0>         0.0724
     29 H13        -0.0060   -0.8388   -0.3924 H         1 <0>         0.0732
     30 H14         1.9871    2.9781    0.5530 H         1 <0>         0.0832
     31 H15         1.9715    1.3657   -0.2119 H         1 <0>         0.1344
     32 H16         1.9492    4.1009   -3.1858 H         1 <0>         0.1070
     33 H17         2.2840    4.8905   -1.6106 H         1 <0>         0.0869
     34 H18         3.7934    2.7086   -4.0573 H         1 <0>         0.4051
     35 H19         3.8817    4.3008    0.3889 H         1 <0>         0.4315
     36 H20         4.4910    2.9390    1.1238 H         1 <0>         0.4063
     37 O4          5.3048    4.6228   -3.3962 O.co2     1 <0>        -0.6744
     38 N3          4.3951    3.4339    0.2386 N.4       1 <0>        -0.6168
     39 H21         5.3297    3.6565   -0.1237 H         1 <0>         0.4422
@<TRIPOS>BOND
     1    1    2 1
     2    1   18 1
     3    1   19 1
     4    1   20 1
     5    2    3 1
     6    2   21 1
     7    2   22 1
     8    3    4 1
     9    3    7 am
    10    4    5 1
    11    4    6 1
    12    4   23 1
    13    5   24 1
    14    5   25 1
    15    5   26 1
    16    6   27 1
    17    6   28 1
    18    6   29 1
    19    7    8 2
    20    7    9 am
    21    9   14 1
    22    9   10 1
    23   10   11 1
    24   10   30 1
    25   10   31 1
    26   11   12 1
    27   11   13 1
    28   11   38 1
    29   13   14 1
    30   13   15 1
    31   13   17 1
    32   14   32 1
    33   14   33 1
    34   15   16 2
    35   15   37 1
    36   17   34 1
    37   35   38 1
    38   36   38 1
    39   38   39 1
@<TRIPOS>MOLECULE
ZINC03833960
   27    27     0     0     0
SMALL
USER_CHARGES

@<TRIPOS>ATOM
      1 C1          1.1738    2.0996   -0.8221 C.3       1 <0>        -0.1701
      2 C2         -0.1258    1.3389   -0.7643 C.2       1 <0>         0.5065
      3 O1         -0.2189    0.2558   -1.3019 O.2       1 <0>        -0.5204
      4 N1         -1.1863    1.8647   -0.1198 N.am      1 <0>        -0.6685
      5 C3         -2.4136    1.2011   -0.1390 C.ar      1 <0>         0.1384
      6 C4         -2.4511   -0.1886   -0.1405 C.ar      1 <0>        -0.1275
      7 C5         -3.6600   -0.8477   -0.1594 C.ar      1 <0>        -0.0519
      8 C6         -4.8533   -0.1196   -0.1766 C.ar      1 <0>        -0.1121
      9 C7         -4.8167    1.2776   -0.1751 C.ar      1 <0>        -0.0657
     10 C8         -3.6015    1.9337   -0.1508 C.ar      1 <0>         0.0325
     11 O2         -3.5624    3.2930   -0.1437 O.3       1 <0>        -0.2910
     12 C9         -3.4566    3.9058   -1.3334 C.2       1 <0>         0.4427
     13 O3         -3.3087    3.2521   -2.3387 O.2       1 <0>        -0.4889
     14 C10        -3.5223    5.4092   -1.4150 C.3       1 <0>        -0.1422
     15 C11        -6.1485   -0.8246   -0.1968 C.2       1 <0>         0.4924
     16 O4         -7.1850   -0.1907   -0.2118 O.co2     1 <0>        -0.6295
     17 H1          1.9077    1.5228   -1.3848 H         1 <0>         0.0955
     18 H2          1.0117    3.0591   -1.3133 H         1 <0>         0.0880
     19 H3          1.5420    2.2673    0.1900 H         1 <0>         0.0898
     20 H4         -1.0964    2.7045    0.3573 H         1 <0>         0.4083
     21 H5         -1.5301   -0.7525   -0.1265 H         1 <0>         0.1424
     22 H6         -3.6863   -1.9273   -0.1605 H         1 <0>         0.1417
     23 H7         -5.7368    1.8431   -0.1884 H         1 <0>         0.1383
     24 H8         -2.5184    5.8226   -1.3178 H         1 <0>         0.1020
     25 H9         -3.9446    5.7028   -2.3760 H         1 <0>         0.1028
     26 H10        -4.1514    5.7896   -0.6103 H         1 <0>         0.0956
     27 O5         -6.1824   -2.1716   -0.1987 O.co2     1 <0>        -0.7491
@<TRIPOS>BOND
     1    1    2 1
     2    1   17 1
     3    1   18 1
     4    1   19 1
     5    2    3 2
     6    2    4 am
     7    4    5 1
     8    4   20 1
     9    5   10 ar
    10    5    6 ar
    11    6    7 ar
    12    6   21 1
    13    7    8 ar
    14    7   22 1
    15    8    9 ar
    16    8   15 1
    17    9   10 ar
    18    9   23 1
    19   10   11 1
    20   11   12 1
    21   12   13 2
    22   12   14 1
    23   14   24 1
    24   14   25 1
    25   14   26 1
    26   15   16 2
    27   15   27 1
@<TRIPOS>MOLECULE
ZINC03833961
   29    29     0     0     0
SMALL
USER_CHARGES

@<TRIPOS>ATOM
      1 C1         -6.4376    5.8669    0.0396 C.3       1 <0>        -0.1666
      2 C2         -5.1274    5.1510   -0.1655 C.2       1 <0>         0.4949
      3 O1         -4.1933    5.7307   -0.6778 O.2       1 <0>        -0.4921
      4 N1         -4.9937    3.8666    0.2203 N.am      1 <0>        -0.6669
      5 C3         -3.7706    3.2141    0.0614 C.ar      1 <0>         0.2092
      6 C4         -3.7414    1.8797   -0.3274 C.ar      1 <0>        -0.0764
      7 C5         -2.5366    1.2316   -0.4850 C.ar      1 <0>        -0.0008
      8 C6         -1.3392    1.9155   -0.2549 C.ar      1 <0>        -0.1090
      9 C7         -1.3676    3.2558    0.1407 C.ar      1 <0>        -0.0062
     10 C8         -2.5787    3.9024    0.2926 C.ar      1 <0>         0.0626
     11 O2         -2.6098    5.2078    0.6724 O.3       1 <0>        -0.2517
     12 C9         -2.7456    5.4577    1.9843 C.2       1 <0>         0.4426
     13 O3         -2.9263    4.5468    2.7573 O.2       1 <0>        -0.4983
     14 C10        -2.6728    6.8744    2.4929 C.3       1 <0>        -0.1414
     15 C11        -0.0485    1.2223   -0.4234 C.2       1 <0>         0.4964
     16 O4         -0.0252    0.0558   -0.7625 O.co2     1 <0>        -0.6133
     17 N2         -5.0080    1.1538   -0.5720 N.pl3     1 <0>         0.0482
     18 O5         -4.9835    0.0115   -0.9941 O.2       1 <0>        -0.1469
     19 O6         -6.0746    1.6987   -0.3512 O.3       1 <0>        -0.1929
     20 H1         -6.4382    6.3508    1.0162 H         1 <0>         0.0959
     21 H2         -6.5663    6.6191   -0.7387 H         1 <0>         0.0993
     22 H3         -7.2558    5.1485   -0.0105 H         1 <0>         0.0873
     23 H4         -5.7477    3.3958    0.6085 H         1 <0>         0.4246
     24 H5         -2.5167    0.1948   -0.7867 H         1 <0>         0.1697
     25 H6         -0.4445    3.7858    0.3233 H         1 <0>         0.1628
     26 H7         -3.4604    7.4680    2.0288 H         1 <0>         0.0998
     27 H8         -2.8040    6.8792    3.5750 H         1 <0>         0.1021
     28 H9         -1.7013    7.3008    2.2429 H         1 <0>         0.1043
     29 O7          1.1051    1.8842   -0.2067 O.co2     1 <0>        -0.7370
@<TRIPOS>BOND
     1    1    2 1
     2    1   20 1
     3    1   21 1
     4    1   22 1
     5    2    3 2
     6    2    4 am
     7    4    5 1
     8    4   23 1
     9    5   10 ar
    10    5    6 ar
    11    6    7 ar
    12    6   17 1
    13    7    8 ar
    14    7   24 1
    15    8    9 ar
    16    8   15 1
    17    9   10 ar
    18    9   25 1
    19   10   11 1
    20   11   12 1
    21   12   13 2
    22   12   14 1
    23   14   26 1
    24   14   27 1
    25   14   28 1
    26   15   16 2
    27   15   29 1
    28   17   18 2
    29   17   19 1
@<TRIPOS>MOLECULE
ZINC03833962
   60    61     0     0     0
SMALL
USER_CHARGES

@<TRIPOS>ATOM
      1 C1         -4.3183    1.9765   -1.1511 C.3       1 <0>        -0.1540
      2 C2         -4.1359    2.3222   -2.6304 C.3       1 <0>        -0.1420
      3 C3         -3.7856    3.8052   -2.7681 C.3       1 <0>         0.0880
      4 H1         -4.5422    4.4057   -2.2630 H         1 <0>         0.0685
      5 C4         -3.7404    4.1830   -4.2501 C.3       1 <0>        -0.1221
      6 C5         -3.5136    5.6900   -4.3855 C.3       1 <0>        -0.1158
      7 C6         -3.4684    6.0678   -5.8674 C.3       1 <0>        -0.0822
      8 C7         -2.2501    5.4146   -6.5233 C.3       1 <0>        -0.1131
      9 C8         -2.2049    5.7924   -8.0052 C.3       1 <0>        -0.1192
     10 C9         -2.1032    7.3130   -8.1410 C.3       1 <0>        -0.1205
     11 C10        -3.3214    7.9662   -7.4851 C.3       1 <0>        -0.1192
     12 C11        -3.3667    7.5884   -6.0032 C.3       1 <0>        -0.1156
     13 O1         -2.5089    4.0501   -2.1749 O.3       1 <0>        -0.3547
     14 C12        -2.5730    4.7137   -0.9109 C.3       1 <0>         0.1277
     15 H2         -3.4383    4.3494   -0.3573 H         1 <0>         0.0792
     16 C13        -2.7097    6.1921   -1.1314 C.2       1 <0>        -0.1715
     17 C14        -2.0510    7.0991   -0.4411 C.2       1 <0>        -0.1242
     18 C15        -1.0724    6.7704    0.6484 C.3       1 <0>        -0.0851
     19 C16        -1.2704    5.3272    1.1164 C.3       1 <0>         0.0205
     20 H3         -2.2135    5.2435    1.6565 H         1 <0>         0.1486
     21 C17        -1.2999    4.4153   -0.1163 C.3       1 <0>         0.1240
     22 H4         -0.4261    4.6078   -0.7388 H         1 <0>         0.1328
     23 N1         -1.3023    3.0133    0.3086 N.am      1 <0>        -0.7347
     24 C18        -0.1408    2.3367    0.4061 C.2       1 <0>         0.5054
     25 O2          0.9060    2.8870    0.1371 O.2       1 <0>        -0.5398
     26 C19        -0.1432    0.8945    0.8432 C.3       1 <0>        -0.1817
     27 C20        -2.2879    8.5150   -0.7551 C.2       1 <0>         0.4779
     28 O3         -3.0735    8.8201   -1.6308 O.co2     1 <0>        -0.6126
     29 H5         -3.3820    2.1476   -0.6199 H         1 <0>         0.0457
     30 H6         -5.0986    2.6066   -0.7243 H         1 <0>         0.0555
     31 H7         -4.6041    0.9290   -1.0553 H         1 <0>         0.0600
     32 H8         -5.0612    2.1159   -3.1684 H         1 <0>         0.0767
     33 H9         -3.3304    1.7183   -3.0480 H         1 <0>         0.0715
     34 H10        -2.9251    3.6477   -4.7367 H         1 <0>         0.0729
     35 H11        -4.6850    3.9138   -4.7226 H         1 <0>         0.0740
     36 H12        -4.3289    6.2253   -3.8988 H         1 <0>         0.0628
     37 H13        -2.5690    5.9592   -3.9129 H         1 <0>         0.0723
     38 H14        -4.3764    5.7190   -6.3592 H         1 <0>         0.0650
     39 H15        -1.3420    5.7634   -6.0315 H         1 <0>         0.0606
     40 H16        -2.3226    4.3314   -6.4265 H         1 <0>         0.0591
     41 H17        -3.1130    5.4437   -8.4970 H         1 <0>         0.0588
     42 H18        -1.3370    5.3271   -8.4724 H         1 <0>         0.0575
     43 H19        -2.0710    7.5822   -9.1967 H         1 <0>         0.0578
     44 H20        -1.1951    7.6618   -7.6492 H         1 <0>         0.0608
     45 H21        -4.2295    7.6174   -7.9769 H         1 <0>         0.0582
     46 H22        -3.2490    9.0495   -7.5818 H         1 <0>         0.0607
     47 H23        -4.2346    8.0537   -5.5359 H         1 <0>         0.0635
     48 H24        -2.4586    7.9372   -5.5114 H         1 <0>         0.0644
     49 H25        -3.3873    6.5313   -1.9010 H         1 <0>         0.1427
     50 H26        -0.0571    6.8918    0.2709 H         1 <0>         0.0985
     51 H27        -1.2282    7.4457    1.4898 H         1 <0>         0.1139
     52 H28        -2.1399    2.5719    0.5199 H         1 <0>         0.4106
     53 H29         0.8794    0.5174    0.8575 H         1 <0>         0.1017
     54 H30        -0.5726    0.8183    1.8421 H         1 <0>         0.0935
     55 H31        -0.7382    0.3045    0.1460 H         1 <0>         0.0986
     56 H32        -0.1201    5.5237    2.8125 H         1 <0>         0.4395
     57 H33        -0.2259    3.9623    2.2497 H         1 <0>         0.4241
     58 N2         -0.1392    4.9401    1.9778 N.4       1 <0>        -0.6368
     59 H34         0.7383    5.0673    1.4599 H         1 <0>         0.4430
     60 O4         -1.6338    9.4754   -0.0719 O.co2     1 <0>        -0.7514
@<TRIPOS>BOND
     1    1    2 1
     2    1   29 1
     3    1   30 1
     4    1   31 1
     5    2    3 1
     6    2   32 1
     7    2   33 1
     8    3    4 1
     9    3    5 1
    10    3   13 1
    11    5    6 1
    12    5   34 1
    13    5   35 1
    14    6    7 1
    15    6   36 1
    16    6   37 1
    17    7   12 1
    18    7    8 1
    19    7   38 1
    20    8    9 1
    21    8   39 1
    22    8   40 1
    23    9   10 1
    24    9   41 1
    25    9   42 1
    26   10   11 1
    27   10   43 1
    28   10   44 1
    29   11   12 1
    30   11   45 1
    31   11   46 1
    32   12   47 1
    33   12   48 1
    34   13   14 1
    35   14   15 1
    36   14   21 1
    37   14   16 1
    38   16   17 2
    39   16   49 1
    40   17   18 1
    41   17   27 1
    42   18   19 1
    43   18   50 1
    44   18   51 1
    45   19   20 1
    46   19   21 1
    47   19   58 1
    48   21   22 1
    49   21   23 1
    50   23   24 am
    51   23   52 1
    52   24   25 2
    53   24   26 1
    54   26   53 1
    55   26   54 1
    56   26   55 1
    57   27   28 2
    58   27   60 1
    59   56   58 1
    60   57   58 1
    61   58   59 1
@<TRIPOS>MOLECULE
ZINC03833963
   39    40     0     0     0
SMALL
USER_CHARGES

@<TRIPOS>ATOM
      1 C1         -0.8323    2.1997   -0.6204 C.3       1 <0>        -0.1722
      2 C2          0.4069    1.3774   -0.3766 C.2       1 <0>         0.5106
      3 O1          1.4802    1.9247   -0.2380 O.2       1 <0>        -0.4963
      4 N1          0.3232    0.0335   -0.3183 N.am      1 <0>        -0.7537
      5 C3          1.5288   -0.7661   -0.0873 C.3       1 <0>         0.1292
      6 H1          2.3820   -0.2900   -0.5703 H         1 <0>         0.1299
      7 C4          1.3310   -2.1742   -0.6621 C.3       1 <0>         0.0271
      8 H2          0.5778   -2.7050   -0.0797 H         1 <0>         0.1548
      9 C5          2.6632   -2.9225   -0.5833 C.3       1 <0>        -0.0854
     10 C6          3.2407   -2.8056    0.7972 C.2       1 <0>        -0.1213
     11 C7          2.8567   -1.9052    1.6773 C.2       1 <0>        -0.1706
     12 C8          1.7853   -0.8868    1.4163 C.3       1 <0>         0.1188
     13 H3          0.8663   -1.1925    1.9163 H         1 <0>         0.0896
     14 O2          2.2016    0.3804    1.9290 O.3       1 <0>        -0.2823
     15 C9          1.9884    0.6112    3.2512 C.ar      1 <0>         0.1268
     16 C10         1.4882   -0.3982    4.0609 C.ar      1 <0>        -0.2071
     17 C11         1.2774   -0.1627    5.4057 C.ar      1 <0>        -0.0790
     18 C12         1.5545    1.0809    5.9427 C.ar      1 <0>        -0.1556
     19 C13         2.0476    2.0903    5.1367 C.ar      1 <0>        -0.0813
     20 C14         2.2652    1.8583    3.7923 C.ar      1 <0>        -0.1474
     21 C15         4.2959   -3.7505    1.1886 C.2       1 <0>         0.4774
     22 O3          4.7876   -3.6868    2.2982 O.co2     1 <0>        -0.6115
     23 H4         -1.6926    1.5384   -0.7237 H         1 <0>         0.0759
     24 H5         -0.9917    2.8746    0.2206 H         1 <0>         0.1017
     25 H6         -0.7089    2.7807   -1.5343 H         1 <0>         0.0998
     26 H7         -0.5353   -0.4042   -0.4291 H         1 <0>         0.3981
     27 H8          2.5014   -3.9743   -0.8194 H         1 <0>         0.1183
     28 H9          3.3614   -2.4941   -1.3024 H         1 <0>         0.1011
     29 H10         3.3404   -1.8988    2.6429 H         1 <0>         0.1408
     30 H11         1.2677   -1.3685    3.6411 H         1 <0>         0.1274
     31 H12         0.8916   -0.9493    6.0372 H         1 <0>         0.1257
     32 H13         1.3851    1.2643    6.9934 H         1 <0>         0.1246
     33 H14         2.2626    3.0611    5.5583 H         1 <0>         0.1296
     34 H15         2.6508    2.6469    3.1632 H         1 <0>         0.1300
     35 H16         0.7639   -2.9958   -2.4626 H         1 <0>         0.4440
     36 H17         0.0648   -1.5200   -2.1477 H         1 <0>         0.4293
     37 O4          4.7184   -4.6880    0.3170 O.co2     1 <0>        -0.7499
     38 N2          0.9205   -2.0676   -2.0733 N.4       1 <0>        -0.6380
     39 H18         1.6639   -1.6016   -2.6067 H         1 <0>         0.4408
@<TRIPOS>BOND
     1    1    2 1
     2    1   23 1
     3    1   24 1
     4    1   25 1
     5    2    3 2
     6    2    4 am
     7    4    5 1
     8    4   26 1
     9    5    6 1
    10    5   12 1
    11    5    7 1
    12    7    8 1
    13    7    9 1
    14    7   38 1
    15    9   10 1
    16    9   27 1
    17    9   28 1
    18   10   11 2
    19   10   21 1
    20   11   12 1
    21   11   29 1
    22   12   13 1
    23   12   14 1
    24   14   15 1
    25   15   20 ar
    26   15   16 ar
    27   16   17 ar
    28   16   30 1
    29   17   18 ar
    30   17   31 1
    31   18   19 ar
    32   18   32 1
    33   19   20 ar
    34   19   33 1
    35   20   34 1
    36   21   22 2
    37   21   37 1
    38   35   38 1
    39   36   38 1
    40   38   39 1
@<TRIPOS>MOLECULE
ZINC03833964
   42    43     0     0     0
SMALL
USER_CHARGES

@<TRIPOS>ATOM
      1 C1         -3.6092   -1.1795   -0.4792 C.3       1 <0>        -0.1734
      2 C2         -2.2233   -0.6529   -0.7490 C.2       1 <0>         0.5074
      3 O1         -1.8979   -0.3523   -1.8780 O.2       1 <0>        -0.4890
      4 N1         -1.3453   -0.5160    0.2643 N.am      1 <0>        -0.7545
      5 C3          0.0021   -0.0041    0.0020 C.3       1 <0>         0.1287
      6 H1          0.3465   -0.3603   -0.9688 H         1 <0>         0.1266
      7 C4          0.9585   -0.4841    1.1005 C.3       1 <0>         0.0260
      8 H2          0.7013   -0.0049    2.0451 H         1 <0>         0.1531
      9 C5          2.3859   -0.1027    0.7026 C.3       1 <0>        -0.0828
     10 C6          2.4433    1.3446    0.3090 C.2       1 <0>        -0.1314
     11 C7          1.3834    2.0616   -0.0001 C.2       1 <0>        -0.1609
     12 C8         -0.0187    1.5258    0.0104 C.3       1 <0>         0.1201
     13 H3         -0.5324    1.8753    0.9060 H         1 <0>         0.0773
     14 O2         -0.7144    1.9965   -1.1456 O.3       1 <0>        -0.3430
     15 C9         -1.3811    3.2459   -0.9542 C.3       1 <0>         0.1022
     16 C10        -2.0775    3.6443   -2.2299 C.ar      1 <0>        -0.0898
     17 C11        -1.4141    4.4119   -3.1688 C.ar      1 <0>        -0.0947
     18 C12        -2.0514    4.7737   -4.3409 C.ar      1 <0>        -0.1216
     19 C13        -3.3552    4.3755   -4.5700 C.ar      1 <0>        -0.1122
     20 C14        -4.0203    3.6124   -3.6288 C.ar      1 <0>        -0.1252
     21 C15        -3.3816    3.2469   -2.4586 C.ar      1 <0>        -0.0941
     22 C16         3.7584    1.9989    0.2662 C.2       1 <0>         0.4781
     23 O3          3.8447    3.1697   -0.0481 O.co2     1 <0>        -0.6152
     24 H4         -4.2767   -0.3475   -0.2549 H         1 <0>         0.0974
     25 H5         -3.9736   -1.7108   -1.3584 H         1 <0>         0.0981
     26 H6         -3.5798   -1.8611    0.3709 H         1 <0>         0.0782
     27 H7         -1.6055   -0.7564    1.1673 H         1 <0>         0.3958
     28 H8          3.0543   -0.2745    1.5463 H         1 <0>         0.1153
     29 H9          2.7025   -0.7172   -0.1402 H         1 <0>         0.0984
     30 H10         1.5312    3.0949   -0.2772 H         1 <0>         0.1359
     31 H11        -2.1156    3.1470   -0.1549 H         1 <0>         0.0538
     32 H12        -0.6515    4.0095   -0.6848 H         1 <0>         0.0644
     33 H13        -0.3967    4.7261   -2.9881 H         1 <0>         0.1257
     34 H14        -1.5316    5.3696   -5.0765 H         1 <0>         0.1251
     35 H15        -3.8540    4.6604   -5.4846 H         1 <0>         0.1229
     36 H16        -5.0390    3.3013   -3.8078 H         1 <0>         0.1220
     37 H17        -3.9013    2.6507   -1.7232 H         1 <0>         0.1153
     38 H18         1.4801   -2.2816    1.9582 H         1 <0>         0.4427
     39 H19        -0.0935   -2.2242    1.4228 H         1 <0>         0.4284
     40 O4          4.8691    1.3004    0.5755 O.co2     1 <0>        -0.7522
     41 N2          0.8657   -1.9502    1.2163 N.4       1 <0>        -0.6388
     42 H20         1.1524   -2.3778    0.3279 H         1 <0>         0.4402
@<TRIPOS>BOND
     1    1    2 1
     2    1   24 1
     3    1   25 1
     4    1   26 1
     5    2    3 2
     6    2    4 am
     7    4    5 1
     8    4   27 1
     9    5    6 1
    10    5   12 1
    11    5    7 1
    12    7    8 1
    13    7    9 1
    14    7   41 1
    15    9   10 1
    16    9   28 1
    17    9   29 1
    18   10   11 2
    19   10   22 1
    20   11   12 1
    21   11   30 1
    22   12   13 1
    23   12   14 1
    24   14   15 1
    25   15   16 1
    26   15   31 1
    27   15   32 1
    28   16   21 ar
    29   16   17 ar
    30   17   18 ar
    31   17   33 1
    32   18   19 ar
    33   18   34 1
    34   19   20 ar
    35   19   35 1
    36   20   21 ar
    37   20   36 1
    38   21   37 1
    39   22   23 2
    40   22   40 1
    41   38   41 1
    42   39   41 1
    43   41   42 1
@<TRIPOS>MOLECULE
ZINC03833965
   54    55     0     0     0
SMALL
USER_CHARGES

@<TRIPOS>ATOM
      1 C1         -3.2926    5.4577   -4.5409 C.3       1 <0>        -0.1541
      2 C2         -3.4696    3.9589   -4.2891 C.3       1 <0>        -0.1194
      3 C3         -3.7245    3.7186   -2.7998 C.3       1 <0>         0.0870
      4 H1         -4.5764    4.3165   -2.4758 H         1 <0>         0.0716
      5 C4         -4.0237    2.2364   -2.5663 C.3       1 <0>        -0.1360
      6 C5         -4.4341    2.0225   -1.1080 C.3       1 <0>        -0.0839
      7 C6         -4.7123    0.5600   -0.8738 C.ar      1 <0>        -0.0832
      8 C7         -5.9881    0.0609   -1.0587 C.ar      1 <0>        -0.1156
      9 C8         -6.2423   -1.2815   -0.8485 C.ar      1 <0>        -0.1131
     10 C9         -5.2228   -2.1229   -0.4437 C.ar      1 <0>        -0.1225
     11 C10        -3.9483   -1.6226   -0.2533 C.ar      1 <0>        -0.1166
     12 C11        -3.6930   -0.2812   -0.4685 C.ar      1 <0>        -0.1227
     13 O1         -2.5666    4.0945   -2.0515 O.3       1 <0>        -0.3547
     14 C12        -2.8589    4.6434   -0.7649 C.3       1 <0>         0.1214
     15 H2         -3.6960    4.1028   -0.3232 H         1 <0>         0.0845
     16 C13        -3.2275    6.0908   -0.9135 C.2       1 <0>        -0.1695
     17 C14        -2.8005    7.0411   -0.1088 C.2       1 <0>        -0.1229
     18 C15        -1.8833    6.7999    1.0546 C.3       1 <0>        -0.0850
     19 C16        -1.8717    5.3134    1.4167 C.3       1 <0>         0.0201
     20 H3         -2.8315    5.0350    1.8518 H         1 <0>         0.1489
     21 C17        -1.6313    4.5024    0.1374 C.3       1 <0>         0.1245
     22 H4         -0.7506    4.8824   -0.3804 H         1 <0>         0.1331
     23 N1         -1.4309    3.0920    0.4791 N.am      1 <0>        -0.7339
     24 C18        -0.1865    2.6205    0.6924 C.2       1 <0>         0.5059
     25 O2          0.7679    3.3627    0.5965 O.2       1 <0>        -0.5412
     26 C19         0.0196    1.1696    1.0439 C.3       1 <0>        -0.1808
     27 C20        -3.2480    8.4174   -0.3640 C.2       1 <0>         0.4778
     28 O3         -3.9913    8.6516   -1.2966 O.co2     1 <0>        -0.6147
     29 H5         -2.3931    5.8075   -4.0343 H         1 <0>         0.0617
     30 H6         -3.1998    5.6377   -5.6119 H         1 <0>         0.0554
     31 H7         -4.1590    5.9956   -4.1558 H         1 <0>         0.0579
     32 H8         -2.5661    3.4303   -4.5930 H         1 <0>         0.0696
     33 H9         -4.3175    3.5911   -4.8669 H         1 <0>         0.0765
     34 H10        -4.8355    1.9218   -3.2221 H         1 <0>         0.0800
     35 H11        -3.1325    1.6473   -2.7830 H         1 <0>         0.0748
     36 H12        -3.6271    2.3484   -0.4518 H         1 <0>         0.0615
     37 H13        -5.3324    2.6019   -0.8946 H         1 <0>         0.0765
     38 H14        -6.7854    0.7190   -1.3710 H         1 <0>         0.1229
     39 H15        -7.2381   -1.6723   -0.9969 H         1 <0>         0.1236
     40 H16        -5.4222   -3.1710   -0.2759 H         1 <0>         0.1224
     41 H17        -3.1520   -2.2799    0.0633 H         1 <0>         0.1218
     42 H18        -2.6973    0.1096   -0.3197 H         1 <0>         0.1138
     43 H19        -3.8803    6.3686   -1.7277 H         1 <0>         0.1397
     44 H20        -0.8739    7.1154    0.7904 H         1 <0>         0.0992
     45 H21        -2.2290    7.3762    1.9128 H         1 <0>         0.1145
     46 H22        -2.1939    2.4975    0.5519 H         1 <0>         0.4100
     47 H23        -0.0098    1.0505    2.1270 H         1 <0>         0.1008
     48 H24        -0.7701    0.5703    0.5909 H         1 <0>         0.0874
     49 H25         0.9878    0.8387    0.6681 H         1 <0>         0.1051
     50 H26        -0.9318    5.5725    3.2300 H         1 <0>         0.4394
     51 H27        -0.7154    4.0609    2.5712 H         1 <0>         0.4237
     52 N2         -0.7740    5.0569    2.3657 N.4       1 <0>        -0.6366
     53 H28         0.1119    5.3656    1.9485 H         1 <0>         0.4434
     54 O4         -2.8341    9.4200    0.4363 O.co2     1 <0>        -0.7502
@<TRIPOS>BOND
     1    1    2 1
     2    1   29 1
     3    1   30 1
     4    1   31 1
     5    2    3 1
     6    2   32 1
     7    2   33 1
     8    3    4 1
     9    3    5 1
    10    3   13 1
    11    5    6 1
    12    5   34 1
    13    5   35 1
    14    6    7 1
    15    6   36 1
    16    6   37 1
    17    7   12 ar
    18    7    8 ar
    19    8    9 ar
    20    8   38 1
    21    9   10 ar
    22    9   39 1
    23   10   11 ar
    24   10   40 1
    25   11   12 ar
    26   11   41 1
    27   12   42 1
    28   13   14 1
    29   14   15 1
    30   14   21 1
    31   14   16 1
    32   16   17 2
    33   16   43 1
    34   17   18 1
    35   17   27 1
    36   18   19 1
    37   18   44 1
    38   18   45 1
    39   19   20 1
    40   19   21 1
    41   19   52 1
    42   21   22 1
    43   21   23 1
    44   23   24 am
    45   23   46 1
    46   24   25 2
    47   24   26 1
    48   26   47 1
    49   26   48 1
    50   26   49 1
    51   27   28 2
    52   27   54 1
    53   50   52 1
    54   51   52 1
    55   52   53 1
@<TRIPOS>MOLECULE
ZINC03833966
   58    60     0     0     0
SMALL
USER_CHARGES

@<TRIPOS>ATOM
      1 C1          5.4441   -2.2940   -0.8905 C.3       1 <0>        -0.1724
      2 C2          4.1597   -1.5425   -1.1283 C.2       1 <0>         0.5092
      3 O1          3.5417   -1.7087   -2.1585 O.2       1 <0>        -0.4929
      4 N1          3.6978   -0.6856   -0.1962 N.am      1 <0>        -0.7533
      5 C3          2.4492    0.0450   -0.4274 C.3       1 <0>         0.1271
      6 H1          2.3622    0.2960   -1.4845 H         1 <0>         0.1263
      7 C4          2.4366    1.3298    0.4100 C.3       1 <0>         0.0259
      8 H2          2.3688    1.0767    1.4680 H         1 <0>         0.1524
      9 C5          1.2203    2.1637    0.0020 C.3       1 <0>        -0.0822
     10 C6         -0.0158    1.3122    0.0093 C.2       1 <0>        -0.1321
     11 C7          0.0021   -0.0041    0.0020 C.2       1 <0>        -0.1602
     12 C8          1.2609   -0.8216   -0.0053 C.3       1 <0>         0.1223
     13 H3          1.4411   -1.2164    0.9946 H         1 <0>         0.0765
     14 O2          1.1158   -1.9065   -0.9239 O.3       1 <0>        -0.3499
     15 C9          0.5774   -3.0945   -0.3400 C.3       1 <0>         0.0610
     16 C10         0.4670   -4.1834   -1.4091 C.3       1 <0>        -0.1085
     17 C11        -0.1095   -5.4553   -0.7840 C.3       1 <0>        -0.0784
     18 C12        -0.2183   -6.5278   -1.8370 C.ar      1 <0>        -0.0783
     19 C13        -1.3791   -6.6494   -2.5793 C.ar      1 <0>        -0.1112
     20 C14        -1.4824   -7.6268   -3.5483 C.ar      1 <0>        -0.1063
     21 C15        -0.4185   -8.4987   -3.7709 C.ar      1 <0>        -0.0497
     22 C16         0.7465   -8.3750   -3.0166 C.ar      1 <0>        -0.1083
     23 C17         0.8409   -7.3907   -2.0538 C.ar      1 <0>        -0.1133
     24 C18        -0.5260   -9.5554   -4.8071 C.ar      1 <0>        -0.0452
     25 C19         0.5398  -10.4239   -5.0333 C.ar      1 <0>        -0.1124
     26 C20         0.4326  -11.4080   -5.9951 C.ar      1 <0>        -0.1177
     27 C21        -0.7263  -11.5263   -6.7410 C.ar      1 <0>        -0.1198
     28 C22        -1.7855  -10.6635   -6.5242 C.ar      1 <0>        -0.1167
     29 C23        -1.6910   -9.6791   -5.5614 C.ar      1 <0>        -0.1116
     30 C24        -1.3212    1.9869    0.0190 C.2       1 <0>         0.4781
     31 O3         -2.3443    1.3310    0.0202 O.co2     1 <0>        -0.6152
     32 H4          5.8527   -2.0167    0.0812 H         1 <0>         0.0747
     33 H5          5.2467   -3.3658   -0.9091 H         1 <0>         0.1002
     34 H6          6.1618   -2.0431   -1.6715 H         1 <0>         0.0985
     35 H7          4.1921   -0.5527    0.6278 H         1 <0>         0.3958
     36 H8          1.3768    2.5650   -0.9992 H         1 <0>         0.0983
     37 H9          1.0954    2.9880    0.7041 H         1 <0>         0.1151
     38 H10        -0.9435   -0.5258    0.0017 H         1 <0>         0.1359
     39 H11         1.2343   -3.4360    0.4599 H         1 <0>         0.0451
     40 H12        -0.4114   -2.8833    0.0671 H         1 <0>         0.0560
     41 H13        -0.1899   -3.8418   -2.2091 H         1 <0>         0.0754
     42 H14         1.4558   -4.3945   -1.8162 H         1 <0>         0.0716
     43 H15         0.5474   -5.7969    0.0160 H         1 <0>         0.0727
     44 H16        -1.0983   -5.2441   -0.3769 H         1 <0>         0.0770
     45 H17        -2.2046   -5.9757   -2.4031 H         1 <0>         0.1260
     46 H18        -2.3878   -7.7185   -4.1299 H         1 <0>         0.1260
     47 H19         1.5739   -9.0484   -3.1848 H         1 <0>         0.1246
     48 H20         1.7433   -7.2941   -1.4683 H         1 <0>         0.1221
     49 H21         1.4466  -10.3298   -4.4543 H         1 <0>         0.1244
     50 H22         1.2565  -12.0843   -6.1685 H         1 <0>         0.1242
     51 H23        -0.8043  -12.2949   -7.4957 H         1 <0>         0.1231
     52 H24        -2.6881  -10.7605   -7.1092 H         1 <0>         0.1248
     53 H25        -2.5185   -9.0058   -5.3932 H         1 <0>         0.1255
     54 H26         3.6811    2.9431    0.7045 H         1 <0>         0.4427
     55 H27         4.4847    1.5306    0.3514 H         1 <0>         0.4285
     56 O4         -1.3839    3.3335    0.0266 O.co2     1 <0>        -0.7524
     57 N2          3.6651    2.0967    0.1380 N.4       1 <0>        -0.6389
     58 H28         3.6874    2.3575   -0.8548 H         1 <0>         0.4401
@<TRIPOS>BOND
     1    1    2 1
     2    1   32 1
     3    1   33 1
     4    1   34 1
     5    2    3 2
     6    2    4 am
     7    4    5 1
     8    4   35 1
     9    5    6 1
    10    5   12 1
    11    5    7 1
    12    7    8 1
    13    7    9 1
    14    7   57 1
    15    9   10 1
    16    9   36 1
    17    9   37 1
    18   10   11 2
    19   10   30 1
    20   11   12 1
    21   11   38 1
    22   12   13 1
    23   12   14 1
    24   14   15 1
    25   15   16 1
    26   15   39 1
    27   15   40 1
    28   16   17 1
    29   16   41 1
    30   16   42 1
    31   17   18 1
    32   17   43 1
    33   17   44 1
    34   18   23 ar
    35   18   19 ar
    36   19   20 ar
    37   19   45 1
    38   20   21 ar
    39   20   46 1
    40   21   22 ar
    41   21   24 1
    42   22   23 ar
    43   22   47 1
    44   23   48 1
    45   24   29 ar
    46   24   25 ar
    47   25   26 ar
    48   25   49 1
    49   26   27 ar
    50   26   50 1
    51   27   28 ar
    52   27   51 1
    53   28   29 ar
    54   28   52 1
    55   29   53 1
    56   30   31 2
    57   30   56 1
    58   54   57 1
    59   55   57 1
    60   57   58 1
@<TRIPOS>MOLECULE
ZINC03833967
   47    47     0     0     0
SMALL
USER_CHARGES

@<TRIPOS>ATOM
      1 C1          4.7910   -1.4940   -0.9792 C.3       1 <0>        -0.1526
      2 C2          6.1822   -0.8789   -0.8140 C.3       1 <0>        -0.1215
      3 C3          6.0876    0.3660    0.0704 C.3       1 <0>         0.0874
      4 C4          7.4933    0.9033    0.3467 C.3       1 <0>        -0.1435
      5 C5          7.4084    2.0718    1.3307 C.3       1 <0>        -0.1594
      6 O1          5.3176    1.3675   -0.5974 O.3       1 <0>        -0.3394
      7 C6          4.4527    2.1078    0.2662 C.3       1 <0>         0.1169
      8 H1          4.9439    2.2575    1.2277 H         1 <0>         0.0786
      9 C7          3.1810    1.3397    0.4797 C.2       1 <0>        -0.1629
     10 C8          1.9839    1.8872    0.4646 C.2       1 <0>        -0.1312
     11 C9          1.7380    3.3499    0.2341 C.3       1 <0>        -0.0441
     12 H2          1.3849    3.5005   -0.7861 H         1 <0>         0.1012
     13 C10         3.0313    4.1405    0.4422 C.3       1 <0>         0.0249
     14 H3          3.2937    4.1415    1.5001 H         1 <0>         0.1514
     15 C11         4.1485    3.4680   -0.3651 C.3       1 <0>         0.1317
     16 H4          3.8224    3.3286   -1.3958 H         1 <0>         0.1266
     17 N1          5.3504    4.3049   -0.3340 N.am      1 <0>        -0.7536
     18 C12         6.2593    4.2161   -1.3253 C.2       1 <0>         0.5116
     19 O2          6.0820    3.4433   -2.2430 O.2       1 <0>        -0.4923
     20 C13         7.4957    5.0770   -1.2933 C.3       1 <0>        -0.1749
     21 C14         0.6760    3.8468    1.2170 C.3       1 <0>        -0.1661
     22 C15         0.8217    1.0173    0.6925 C.2       1 <0>         0.4823
     23 O3          0.9852   -0.1480    0.9966 O.co2     1 <0>        -0.6147
     24 H5          4.3614   -1.6899    0.0032 H         1 <0>         0.0554
     25 H6          4.1499   -0.8014   -1.5246 H         1 <0>         0.0618
     26 H7          4.8707   -2.4289   -1.5339 H         1 <0>         0.0544
     27 H8          6.5749   -0.6007   -1.7920 H         1 <0>         0.0700
     28 H9          6.8478   -1.6056   -0.3485 H         1 <0>         0.0728
     29 H10         5.6062    0.1061    1.0132 H         1 <0>         0.0646
     30 H11         8.1073    0.1112    0.7753 H         1 <0>         0.0727
     31 H12         7.9412    1.2457   -0.5862 H         1 <0>         0.0702
     32 H13         6.7943    2.8639    0.9021 H         1 <0>         0.0559
     33 H14         6.9604    1.7294    2.2636 H         1 <0>         0.0528
     34 H15         8.4098    2.4546    1.5275 H         1 <0>         0.0555
     35 H16         3.2519    0.2759    0.6520 H         1 <0>         0.1365
     36 H17         5.4922    4.9230    0.4000 H         1 <0>         0.3958
     37 H18         8.2908    4.5515   -0.7643 H         1 <0>         0.0981
     38 H19         7.8167    5.2899   -2.3130 H         1 <0>         0.0980
     39 H20         7.2740    6.0124   -0.7795 H         1 <0>         0.0782
     40 H21         2.1042    5.9783    0.4817 H         1 <0>         0.4403
     41 H22         3.7069    6.0437    0.0424 H         1 <0>         0.4279
     42 H23         0.9528    3.5538    2.2297 H         1 <0>         0.0606
     43 H24         0.6071    4.9330    1.1589 H         1 <0>         0.0304
     44 H25        -0.2885    3.4074    0.9625 H         1 <0>         0.1341
     45 N2          2.8403    5.5163   -0.0498 N.4       1 <0>        -0.6382
     46 H26         2.5701    5.4862   -1.0399 H         1 <0>         0.4395
     47 O4         -0.4258    1.5102    0.5588 O.co2     1 <0>        -0.7439
@<TRIPOS>BOND
     1    1    2 1
     2    1   24 1
     3    1   25 1
     4    1   26 1
     5    2    3 1
     6    2   27 1
     7    2   28 1
     8    3    4 1
     9    3    6 1
    10    3   29 1
    11    4    5 1
    12    4   30 1
    13    4   31 1
    14    5   32 1
    15    5   33 1
    16    5   34 1
    17    6    7 1
    18    7    8 1
    19    7   15 1
    20    7    9 1
    21    9   10 2
    22    9   35 1
    23   10   11 1
    24   10   22 1
    25   11   12 1
    26   11   13 1
    27   11   21 1
    28   13   14 1
    29   13   15 1
    30   13   45 1
    31   15   16 1
    32   15   17 1
    33   17   18 am
    34   17   36 1
    35   18   19 2
    36   18   20 1
    37   20   37 1
    38   20   38 1
    39   20   39 1
    40   21   42 1
    41   21   43 1
    42   21   44 1
    43   22   23 2
    44   22   47 1
    45   40   45 1
    46   41   45 1
    47   45   46 1
@<TRIPOS>MOLECULE
ZINC03833968
   24    24     0     0     0
SMALL
USER_CHARGES

@<TRIPOS>ATOM
      1 C1         -4.8687    0.0495    0.1819 C.3       1 <0>        -0.1670
      2 C2         -3.5627   -0.7020    0.1587 C.2       1 <0>         0.5094
      3 O1         -3.5604   -1.9109    0.0611 O.2       1 <0>        -0.5004
      4 N1         -2.3973   -0.0307    0.2464 N.am      1 <0>        -0.6716
      5 C3         -1.1870   -0.7127    0.1095 C.ar      1 <0>         0.1722
      6 C4         -0.2293   -0.2531   -0.7869 C.ar      1 <0>        -0.0652
      7 C5          0.9684   -0.9194   -0.9213 C.ar      1 <0>        -0.0185
      8 C6          1.2210   -2.0642   -0.1599 C.ar      1 <0>        -0.1010
      9 C7          0.2560   -2.5304    0.7378 C.ar      1 <0>        -0.0363
     10 C8         -0.9432   -1.8580    0.8687 C.ar      1 <0>         0.0980
     11 O2         -1.8839   -2.3088    1.7410 O.3       1 <0>        -0.4628
     12 C9          2.5028   -2.7790   -0.3036 C.2       1 <0>         0.4934
     13 O3          3.3405   -2.3731   -1.0845 O.co2     1 <0>        -0.6149
     14 N2         -0.4949    0.9587   -1.5945 N.pl3     1 <0>         0.0430
     15 O4          0.3830    1.4267   -2.2971 O.2       1 <0>        -0.1586
     16 O5         -1.5929    1.4848   -1.5602 O.3       1 <0>        -0.1809
     17 H1         -4.9022    0.7458   -0.6561 H         1 <0>         0.0940
     18 H2         -5.6955   -0.6562    0.1011 H         1 <0>         0.0939
     19 H3         -4.9532    0.6026    1.1174 H         1 <0>         0.0884
     20 H4         -2.3995    0.9262    0.4047 H         1 <0>         0.4159
     21 H5          1.7126   -0.5576   -1.6153 H         1 <0>         0.1651
     22 H6          0.4477   -3.4148    1.3273 H         1 <0>         0.1614
     23 H7         -1.8053   -1.9379    2.6306 H         1 <0>         0.3803
     24 O6          2.7449   -3.8825    0.4309 O.co2     1 <0>        -0.7378
@<TRIPOS>BOND
     1    1    2 1
     2    1   17 1
     3    1   18 1
     4    1   19 1
     5    2    3 2
     6    2    4 am
     7    4    5 1
     8    4   20 1
     9    5   10 ar
    10    5    6 ar
    11    6    7 ar
    12    6   14 1
    13    7    8 ar
    14    7   21 1
    15    8    9 ar
    16    8   12 1
    17    9   10 ar
    18    9   22 1
    19   10   11 1
    20   11   23 1
    21   12   13 2
    22   12   24 1
    23   14   15 2
    24   14   16 1
@<TRIPOS>MOLECULE
ZINC03929509
   44    44     0     0     0
SMALL
USER_CHARGES

@<TRIPOS>ATOM
      1 C1         -1.1633   -0.1373    2.2080 C.3       1 <0>        -0.1531
      2 C2         -1.2332   -0.5349    0.7323 C.3       1 <0>        -0.1179
      3 C3          0.0021   -0.0041    0.0020 C.3       1 <0>         0.0869
      4 C4         -0.0048   -0.5063   -1.4432 C.3       1 <0>        -0.1462
      5 C5          1.2904   -0.0801   -2.1374 C.3       1 <0>        -0.1679
      6 O1         -0.0173    1.4248    0.0099 O.3       1 <0>        -0.3381
      7 C6          1.2801    2.0237    0.0007 C.3       1 <0>         0.1113
      8 H1          1.9754    1.3716   -0.5279 H         1 <0>         0.0858
      9 C7          1.7524    2.2095    1.4133 C.2       1 <0>        -0.1587
     10 C8          2.3580    3.2954    1.8457 C.2       1 <0>        -0.1351
     11 C9          2.6455    4.4901    0.9836 C.3       1 <0>        -0.0818
     12 C10         2.5376    4.1109   -0.4948 C.3       1 <0>         0.0249
     13 H2          3.3670    3.4580   -0.7668 H         1 <0>         0.1521
     14 C11         1.2098    3.3752   -0.7132 C.3       1 <0>         0.1276
     15 H3          0.3919    3.9655   -0.3000 H         1 <0>         0.1263
     16 N1          0.9895    3.1641   -2.1461 N.am      1 <0>        -0.7531
     17 C12        -0.2618    2.9975   -2.6181 C.2       1 <0>         0.5115
     18 O2         -1.2055    3.0224   -1.8567 O.2       1 <0>        -0.4912
     19 C13        -0.4884    2.7803   -4.0921 C.3       1 <0>        -0.1735
     20 C14         2.7767    3.3407    3.2535 C.2       1 <0>         0.4783
     21 O3          2.5611    2.3923    3.9824 O.co2     1 <0>        -0.6153
     22 H4         -0.2655   -0.5622    2.6567 H         1 <0>         0.0543
     23 H5         -1.1314    0.9492    2.2905 H         1 <0>         0.0636
     24 H6         -2.0434   -0.5154    2.7283 H         1 <0>         0.0543
     25 H7         -2.1311   -0.1099    0.2836 H         1 <0>         0.0701
     26 H8         -1.2651   -1.6213    0.6498 H         1 <0>         0.0732
     27 H9          0.9018   -0.3580    0.5054 H         1 <0>         0.0636
     28 H10        -0.0796   -1.5937   -1.4496 H         1 <0>         0.0723
     29 H11        -0.8575   -0.0803   -1.9718 H         1 <0>         0.0693
     30 H12         2.1431   -0.5061   -1.6087 H         1 <0>         0.0542
     31 H13         1.2855   -0.4379   -3.1670 H         1 <0>         0.0557
     32 H14         1.3652    1.0073   -2.1309 H         1 <0>         0.0618
     33 H15         1.5857    1.4060    2.1154 H         1 <0>         0.1356
     34 H16         3.6525    4.8517    1.1914 H         1 <0>         0.1144
     35 H17         1.9271    5.2787    1.2077 H         1 <0>         0.0976
     36 H18         1.7443    3.1442   -2.7550 H         1 <0>         0.3955
     37 H19         0.4694    2.7891   -4.6121 H         1 <0>         0.0747
     38 H20        -0.9770    1.8183   -4.2467 H         1 <0>         0.1001
     39 H21        -1.1217    3.5765   -4.4835 H         1 <0>         0.0982
     40 H22         3.4365    5.8270   -1.1915 H         1 <0>         0.4425
     41 H23         2.4197    5.1066   -2.2929 H         1 <0>         0.4283
     42 N2          2.5504    5.3386   -1.3096 N.4       1 <0>        -0.6389
     43 H24         1.7860    5.9532   -1.0060 H         1 <0>         0.4402
     44 O4          3.4000    4.4340    3.7366 O.co2     1 <0>        -0.7535
@<TRIPOS>BOND
     1    1    2 1
     2    1   22 1
     3    1   23 1
     4    1   24 1
     5    2    3 1
     6    2   25 1
     7    2   26 1
     8    3    4 1
     9    3    6 1
    10    3   27 1
    11    4    5 1
    12    4   28 1
    13    4   29 1
    14    5   30 1
    15    5   31 1
    16    5   32 1
    17    6    7 1
    18    7    8 1
    19    7   14 1
    20    7    9 1
    21    9   10 2
    22    9   33 1
    23   10   11 1
    24   10   20 1
    25   11   12 1
    26   11   34 1
    27   11   35 1
    28   12   13 1
    29   12   14 1
    30   12   42 1
    31   14   15 1
    32   14   16 1
    33   16   17 am
    34   16   36 1
    35   17   18 2
    36   17   19 1
    37   19   37 1
    38   19   38 1
    39   19   39 1
    40   20   21 2
    41   20   44 1
    42   40   42 1
    43   41   42 1
    44   42   43 1
@<TRIPOS>MOLECULE
ZINC04134481
   32    32     0     0     0
SMALL
USER_CHARGES

@<TRIPOS>ATOM
      1 C1         -1.3733    1.4112   -3.5554 C.3       1 <0>        -0.1721
      2 C2         -0.6368    0.9082   -2.3406 C.2       1 <0>         0.5095
      3 O1          0.0387   -0.0964   -2.4139 O.2       1 <0>        -0.4956
      4 N1         -0.7287    1.5748   -1.1729 N.am      1 <0>        -0.7530
      5 C3         -0.0127    1.0858    0.0080 C.3       1 <0>         0.1268
      6 H1          0.0021   -0.0041    0.0020 H         1 <0>         0.1265
      7 C4         -0.7083    1.5847    1.2805 C.3       1 <0>         0.0261
      8 H2         -0.5891    2.6649    1.3635 H         1 <0>         0.1529
      9 C5         -0.0612    0.9019    2.4873 C.3       1 <0>        -0.0825
     10 C6          1.4327    1.0271    2.4122 C.2       1 <0>        -0.1323
     11 C7          2.0866    1.3395    1.3132 C.2       1 <0>        -0.1611
     12 C8          1.4213    1.6194   -0.0028 C.3       1 <0>         0.1195
     13 H3          1.4051    2.6955   -0.1757 H         1 <0>         0.0773
     14 O2          2.1559    0.9824   -1.0500 O.3       1 <0>        -0.3542
     15 C9          3.1945    1.7909   -1.6064 C.3       1 <0>         0.0286
     16 C10         2.2100    0.7875    3.6360 C.2       1 <0>         0.4780
     17 O3          3.4216    0.8799    3.6142 O.co2     1 <0>        -0.6153
     18 H4         -1.9218    2.3173   -3.2983 H         1 <0>         0.0751
     19 H5         -0.6585    1.6316   -4.3482 H         1 <0>         0.1007
     20 H6         -2.0723    0.6483   -3.8982 H         1 <0>         0.0989
     21 H7         -1.2690    2.3783   -1.1143 H         1 <0>         0.3963
     22 H8         -0.3355   -0.1530    2.4958 H         1 <0>         0.0987
     23 H9         -0.4179    1.3753    3.4021 H         1 <0>         0.1153
     24 H10         3.1640    1.3975    1.3612 H         1 <0>         0.1362
     25 H11         3.9088    2.0527   -0.8257 H         1 <0>         0.0499
     26 H12         3.7043    1.2361   -2.3940 H         1 <0>         0.0911
     27 H13         2.7627    2.7005   -2.0237 H         1 <0>         0.0384
     28 H14        -2.6149    1.5638    2.0570 H         1 <0>         0.4427
     29 H15        -2.5668    1.6181    0.3955 H         1 <0>         0.4284
     30 O4          1.5792    0.4651    4.7829 O.co2     1 <0>        -0.7522
     31 N2         -2.1348    1.2192    1.2273 N.4       1 <0>        -0.6387
     32 H16        -2.2201    0.1966    1.1914 H         1 <0>         0.4402
@<TRIPOS>BOND
     1    1    2 1
     2    1   18 1
     3    1   19 1
     4    1   20 1
     5    2    3 2
     6    2    4 am
     7    4    5 1
     8    4   21 1
     9    5    6 1
    10    5   12 1
    11    5    7 1
    12    7    8 1
    13    7    9 1
    14    7   31 1
    15    9   10 1
    16    9   22 1
    17    9   23 1
    18   10   11 2
    19   10   16 1
    20   11   12 1
    21   11   24 1
    22   12   13 1
    23   12   14 1
    24   14   15 1
    25   15   25 1
    26   15   26 1
    27   15   27 1
    28   16   17 2
    29   16   30 1
    30   28   31 1
    31   29   31 1
    32   31   32 1
@<TRIPOS>MOLECULE
ZINC04134482
   35    35     0     0     0
SMALL
USER_CHARGES

@<TRIPOS>ATOM
      1 C1          1.1386    3.5471    0.0102 C.3       1 <0>        -0.1493
      2 C2          1.2801    2.0237    0.0007 C.3       1 <0>         0.0563
      3 O1         -0.0173    1.4248    0.0099 O.3       1 <0>        -0.3518
      4 C3          0.0021   -0.0041    0.0020 C.3       1 <0>         0.1212
      5 H1          0.9024   -0.3560    0.5057 H         1 <0>         0.0766
      6 C4          0.0020   -0.4939   -1.4168 C.2       1 <0>        -0.1603
      7 C5         -0.7274   -1.5038   -1.8424 C.2       1 <0>        -0.1327
      8 C6         -1.6585   -2.2889   -0.9651 C.3       1 <0>        -0.0827
      9 C7         -1.3252   -2.0449    0.5081 C.3       1 <0>         0.0256
     10 H2         -0.3716   -2.5142    0.7504 H         1 <0>         0.1531
     11 C8         -1.2307   -0.5321    0.7387 C.3       1 <0>         0.1285
     12 H3         -2.1253   -0.0442    0.3519 H         1 <0>         0.1266
     13 N1         -1.0998   -0.2631    2.1728 N.am      1 <0>        -0.7546
     14 C9         -1.4755    0.9313    2.6714 C.2       1 <0>         0.5088
     15 O2         -1.9220    1.7834    1.9329 O.2       1 <0>        -0.4926
     16 C10        -1.3408    1.2080    4.1467 C.3       1 <0>        -0.1755
     17 C11        -0.6237   -1.8847   -3.2579 C.2       1 <0>         0.4781
     18 O3          0.1201   -1.2726   -3.9990 O.co2     1 <0>        -0.6153
     19 H4          0.5849    3.8661   -0.8728 H         1 <0>         0.0663
     20 H5          0.6019    3.8566    0.9071 H         1 <0>         0.0615
     21 H6          2.1282    4.0040    0.0032 H         1 <0>         0.0717
     22 H7          1.8338    1.7047    0.8837 H         1 <0>         0.0437
     23 H8          1.8168    1.7143   -0.8961 H         1 <0>         0.0551
     24 H9          0.6372    0.0110   -2.1295 H         1 <0>         0.1358
     25 H10        -2.6853   -1.9790   -1.1594 H         1 <0>         0.0983
     26 H11        -1.5554   -3.3509   -1.1879 H         1 <0>         0.1151
     27 H12        -0.7427   -0.9446    2.7635 H         1 <0>         0.3961
     28 H13        -0.2947    1.1178    4.4393 H         1 <0>         0.0907
     29 H14        -1.6922    2.2174    4.3606 H         1 <0>         0.0980
     30 H15        -1.9382    0.4890    4.7072 H         1 <0>         0.0877
     31 H16        -2.4777   -3.6021    1.2047 H         1 <0>         0.4427
     32 H17        -2.2193   -2.4029    2.3277 H         1 <0>         0.4284
     33 N2         -2.4058   -2.5957    1.3450 N.4       1 <0>        -0.6386
     34 H18        -3.2951   -2.1561    1.0802 H         1 <0>         0.4401
     35 O4         -1.3534   -2.9131   -3.7343 O.co2     1 <0>        -0.7524
@<TRIPOS>BOND
     1    1    2 1
     2    1   19 1
     3    1   20 1
     4    1   21 1
     5    2    3 1
     6    2   22 1
     7    2   23 1
     8    3    4 1
     9    4    5 1
    10    4   11 1
    11    4    6 1
    12    6    7 2
    13    6   24 1
    14    7    8 1
    15    7   17 1
    16    8    9 1
    17    8   25 1
    18    8   26 1
    19    9   10 1
    20    9   11 1
    21    9   33 1
    22   11   12 1
    23   11   13 1
    24   13   14 am
    25   13   27 1
    26   14   15 2
    27   14   16 1
    28   16   28 1
    29   16   29 1
    30   16   30 1
    31   17   18 2
    32   17   35 1
    33   31   33 1
    34   32   33 1
    35   33   34 1
@<TRIPOS>MOLECULE
ZINC04134483
   38    38     0     0     0
SMALL
USER_CHARGES

@<TRIPOS>ATOM
      1 C1          0.0111    1.0724    2.5063 C.3       1 <0>        -0.1506
      2 C2         -0.7288    1.5792    1.2668 C.3       1 <0>        -0.1203
      3 C3         -0.0127    1.0858    0.0080 C.3       1 <0>         0.0603
      4 O1         -0.7038    1.5592   -1.1497 O.3       1 <0>        -0.3515
      5 C4         -0.1136    1.1523   -2.3859 C.3       1 <0>         0.1216
      6 H1          0.3756    0.1875   -2.2524 H         1 <0>         0.0762
      7 C5          0.9055    2.1696   -2.8093 C.2       1 <0>        -0.1604
      8 C6          1.0393    2.6008   -4.0459 C.2       1 <0>        -0.1326
      9 C7          0.1838    2.1368   -5.1886 C.3       1 <0>        -0.0825
     10 C8         -0.5322    0.8368   -4.8166 C.3       1 <0>         0.0260
     11 H2          0.1915    0.0236   -4.7596 H         1 <0>         0.1529
     12 C9         -1.2046    1.0247   -3.4511 C.3       1 <0>         0.1279
     13 H3         -1.8119    1.9298   -3.4635 H         1 <0>         0.1263
     14 N1         -2.0518   -0.1324   -3.1519 N.am      1 <0>        -0.7537
     15 C10        -3.0853   -0.0075   -2.2959 C.2       1 <0>         0.5092
     16 O2         -3.3140    1.0628   -1.7734 O.2       1 <0>        -0.4932
     17 C11        -3.9568   -1.1978   -1.9881 C.3       1 <0>        -0.1735
     18 C12         2.0866    3.5935   -4.3236 C.2       1 <0>         0.4781
     19 O3          2.7991    3.9930   -3.4238 O.co2     1 <0>        -0.6153
     20 H4          0.0259   -0.0175    2.5003 H         1 <0>         0.0535
     21 H5          1.0337    1.4497    2.4986 H         1 <0>         0.0584
     22 H6         -0.4990    1.4239    3.4031 H         1 <0>         0.0628
     23 H7         -0.7436    2.6691    1.2728 H         1 <0>         0.0730
     24 H8         -1.7514    1.2020    1.2746 H         1 <0>         0.0684
     25 H9          0.0021   -0.0041    0.0020 H         1 <0>         0.0439
     26 H10         1.0099    1.4631    0.0003 H         1 <0>         0.0551
     27 H11         1.5673    2.5710   -2.0561 H         1 <0>         0.1357
     28 H12         0.8110    1.9663   -6.0636 H         1 <0>         0.1152
     29 H13        -0.5560    2.9031   -5.4205 H         1 <0>         0.0983
     30 H14        -1.8688   -0.9884   -3.5697 H         1 <0>         0.3960
     31 H15        -3.5492   -1.7347   -1.1315 H         1 <0>         0.0980
     32 H16        -4.9667   -0.8587   -1.7573 H         1 <0>         0.0984
     33 H17        -3.9848   -1.8609   -2.8527 H         1 <0>         0.0784
     34 H18        -1.1293    0.3987   -6.7375 H         1 <0>         0.4427
     35 H19        -2.0897   -0.2834   -5.5635 H         1 <0>         0.4284
     36 N2         -1.5638    0.5479   -5.8283 N.4       1 <0>        -0.6387
     37 H20        -2.2074    1.3454   -5.8914 H         1 <0>         0.4402
     38 O4          2.2570    4.0610   -5.5764 O.co2     1 <0>        -0.7525
@<TRIPOS>BOND
     1    1    2 1
     2    1   20 1
     3    1   21 1
     4    1   22 1
     5    2    3 1
     6    2   23 1
     7    2   24 1
     8    3    4 1
     9    3   25 1
    10    3   26 1
    11    4    5 1
    12    5    6 1
    13    5   12 1
    14    5    7 1
    15    7    8 2
    16    7   27 1
    17    8    9 1
    18    8   18 1
    19    9   10 1
    20    9   28 1
    21    9   29 1
    22   10   11 1
    23   10   12 1
    24   10   36 1
    25   12   13 1
    26   12   14 1
    27   14   15 am
    28   14   30 1
    29   15   16 2
    30   15   17 1
    31   17   31 1
    32   17   32 1
    33   17   33 1
    34   18   19 2
    35   18   38 1
    36   34   36 1
    37   35   36 1
    38   36   37 1
@<TRIPOS>MOLECULE
ZINC04134484
   41    41     0     0     0
SMALL
USER_CHARGES

@<TRIPOS>ATOM
      1 C1          6.2856    6.2053    1.8040 C.3       1 <0>        -0.1522
      2 C2          5.4393    5.4970    0.7444 C.3       1 <0>        -0.1220
      3 C3          4.7602    4.2754    1.3669 C.3       1 <0>        -0.1160
      4 C4          3.9139    3.5670    0.3072 C.3       1 <0>         0.0605
      5 O1          3.2796    2.4261    0.8887 O.3       1 <0>        -0.3517
      6 C5          2.4606    1.6895   -0.0216 C.3       1 <0>         0.1218
      7 H1          2.8660    1.7828   -1.0291 H         1 <0>         0.0762
      8 C6          1.0659    2.2435    0.0039 C.2       1 <0>        -0.1603
      9 C7         -0.0183    1.4967    0.0103 C.2       1 <0>        -0.1325
     10 C8          0.0021   -0.0041    0.0020 C.3       1 <0>        -0.0824
     11 C9          1.3775   -0.5097   -0.4380 C.3       1 <0>         0.0256
     12 H2          1.5241   -0.2974   -1.4970 H         1 <0>         0.1527
     13 C10         2.4491    0.2147    0.3859 C.3       1 <0>         0.1282
     14 H3          2.2147    0.1299    1.4470 H         1 <0>         0.1266
     15 N1          3.7603   -0.3830    0.1222 N.am      1 <0>        -0.7543
     16 C11         4.7403   -0.2912    1.0430 C.2       1 <0>         0.5092
     17 O2          4.5365    0.2863    2.0898 O.2       1 <0>        -0.4932
     18 C12         6.0891   -0.9061    0.7717 C.3       1 <0>        -0.1756
     19 C13        -1.3237    2.1714    0.0200 C.2       1 <0>         0.4781
     20 O3         -1.3802    3.3855    0.0269 O.co2     1 <0>        -0.6153
     21 H4          5.6453    6.5252    2.6262 H         1 <0>         0.0568
     22 H5          7.0449    5.5199    2.1804 H         1 <0>         0.0540
     23 H6          6.7693    7.0756    1.3605 H         1 <0>         0.0564
     24 H7          6.0795    5.1771   -0.0778 H         1 <0>         0.0605
     25 H8          4.6799    6.1824    0.3680 H         1 <0>         0.0652
     26 H9          4.1199    4.5952    2.1890 H         1 <0>         0.0732
     27 H10         5.5196    3.5900    1.7433 H         1 <0>         0.0688
     28 H11         4.5541    3.2472   -0.5149 H         1 <0>         0.0440
     29 H12         3.1545    4.2525   -0.0691 H         1 <0>         0.0551
     30 H13         0.9447    3.3166    0.0179 H         1 <0>         0.1358
     31 H14        -0.2153   -0.3739    1.0040 H         1 <0>         0.0984
     32 H15        -0.7546   -0.3719   -0.6909 H         1 <0>         0.1151
     33 H16         3.9233   -0.8449   -0.7150 H         1 <0>         0.3964
     34 H17         6.5223   -0.4530   -0.1199 H         1 <0>         0.0908
     35 H18         6.7460   -0.7314    1.6238 H         1 <0>         0.0980
     36 H19         5.9746   -1.9787    0.6152 H         1 <0>         0.0878
     37 H20         0.7620   -2.4533   -0.7244 H         1 <0>         0.4427
     38 H21         2.3912   -2.3016   -0.4267 H         1 <0>         0.4285
     39 N2          1.4650   -1.9577   -0.1787 N.4       1 <0>        -0.6387
     40 H22         1.2988   -2.1324    0.8194 H         1 <0>         0.4401
     41 O4         -2.4585    1.4438    0.0213 O.co2     1 <0>        -0.7524
@<TRIPOS>BOND
     1    1    2 1
     2    1   21 1
     3    1   22 1
     4    1   23 1
     5    2    3 1
     6    2   24 1
     7    2   25 1
     8    3    4 1
     9    3   26 1
    10    3   27 1
    11    4    5 1
    12    4   28 1
    13    4   29 1
    14    5    6 1
    15    6    7 1
    16    6   13 1
    17    6    8 1
    18    8    9 2
    19    8   30 1
    20    9   10 1
    21    9   19 1
    22   10   11 1
    23   10   31 1
    24   10   32 1
    25   11   12 1
    26   11   13 1
    27   11   39 1
    28   13   14 1
    29   13   15 1
    30   15   16 am
    31   15   33 1
    32   16   17 2
    33   16   18 1
    34   18   34 1
    35   18   35 1
    36   18   36 1
    37   19   20 2
    38   19   41 1
    39   37   39 1
    40   38   39 1
    41   39   40 1
@<TRIPOS>MOLECULE
ZINC04134485
   41    41     0     0     0
SMALL
USER_CHARGES

@<TRIPOS>ATOM
      1 C1         -2.1214    0.9498    1.3412 C.3       1 <0>        -0.1469
      2 C2         -0.7288    1.5792    1.2668 C.3       1 <0>        -0.0930
      3 C3          0.0786    1.1786    2.5031 C.3       1 <0>        -0.1475
      4 C4         -0.0127    1.0858    0.0080 C.3       1 <0>         0.0653
      5 O1         -0.7038    1.5592   -1.1497 O.3       1 <0>        -0.3481
      6 C5         -0.1136    1.1523   -2.3859 C.3       1 <0>         0.1216
      7 H1          0.3756    0.1875   -2.2524 H         1 <0>         0.0756
      8 C6          0.9055    2.1696   -2.8093 C.2       1 <0>        -0.1599
      9 C7          1.0393    2.6008   -4.0459 C.2       1 <0>        -0.1329
     10 C8          0.1838    2.1368   -5.1886 C.3       1 <0>        -0.0822
     11 C9         -0.5322    0.8368   -4.8166 C.3       1 <0>         0.0257
     12 H2          0.1915    0.0236   -4.7596 H         1 <0>         0.1526
     13 C10        -1.2046    1.0247   -3.4511 C.3       1 <0>         0.1282
     14 H3         -1.8119    1.9298   -3.4635 H         1 <0>         0.1264
     15 N1         -2.0518   -0.1324   -3.1519 N.am      1 <0>        -0.7531
     16 C11        -3.0853   -0.0075   -2.2959 C.2       1 <0>         0.5093
     17 O2         -3.3140    1.0628   -1.7734 O.2       1 <0>        -0.4911
     18 C12        -3.9568   -1.1978   -1.9881 C.3       1 <0>        -0.1729
     19 C13         2.0866    3.5935   -4.3236 C.2       1 <0>         0.4781
     20 O3          2.7991    3.9930   -3.4238 O.co2     1 <0>        -0.6154
     21 H4         -2.0280   -0.1356    1.3781 H         1 <0>         0.0438
     22 H5         -2.6316    1.3013    2.2380 H         1 <0>         0.0515
     23 H6         -2.6966    1.2352    0.4604 H         1 <0>         0.0749
     24 H7         -0.8222    2.6646    1.2299 H         1 <0>         0.0803
     25 H8          1.0707    1.6270    2.4501 H         1 <0>         0.0582
     26 H9         -0.4316    1.5301    3.3999 H         1 <0>         0.0626
     27 H10         0.1720    0.0932    2.5400 H         1 <0>         0.0539
     28 H11         0.0021   -0.0041    0.0020 H         1 <0>         0.0443
     29 H12         1.0099    1.4631    0.0003 H         1 <0>         0.0543
     30 H13         1.5673    2.5710   -2.0561 H         1 <0>         0.1355
     31 H14         0.8110    1.9663   -6.0636 H         1 <0>         0.1148
     32 H15        -0.5560    2.9031   -5.4205 H         1 <0>         0.0981
     33 H16        -1.8688   -0.9884   -3.5697 H         1 <0>         0.3956
     34 H17        -3.6000   -2.0634   -2.5463 H         1 <0>         0.0743
     35 H18        -3.9154   -1.4119   -0.9201 H         1 <0>         0.1001
     36 H19        -4.9853   -0.9790   -2.2752 H         1 <0>         0.0984
     37 H20        -1.1293    0.3987   -6.7375 H         1 <0>         0.4426
     38 H21        -2.0897   -0.2834   -5.5635 H         1 <0>         0.4284
     39 N2         -1.5638    0.5479   -5.8283 N.4       1 <0>        -0.6388
     40 H22        -2.2074    1.3454   -5.8914 H         1 <0>         0.4401
     41 O4          2.2570    4.0610   -5.5764 O.co2     1 <0>        -0.7527
@<TRIPOS>BOND
     1    1    2 1
     2    1   21 1
     3    1   22 1
     4    1   23 1
     5    2    3 1
     6    2    4 1
     7    2   24 1
     8    3   25 1
     9    3   26 1
    10    3   27 1
    11    4    5 1
    12    4   28 1
    13    4   29 1
    14    5    6 1
    15    6    7 1
    16    6   13 1
    17    6    8 1
    18    8    9 2
    19    8   30 1
    20    9   10 1
    21    9   19 1
    22   10   11 1
    23   10   31 1
    24   10   32 1
    25   11   12 1
    26   11   13 1
    27   11   39 1
    28   13   14 1
    29   13   15 1
    30   15   16 am
    31   15   33 1
    32   16   17 2
    33   16   18 1
    34   18   34 1
    35   18   35 1
    36   18   36 1
    37   19   20 2
    38   19   41 1
    39   37   39 1
    40   38   39 1
    41   39   40 1
@<TRIPOS>MOLECULE
ZINC04134486
   41    41     0     0     0
SMALL
USER_CHARGES

@<TRIPOS>ATOM
      1 C1         -1.1723    0.1545   -3.0771 C.3       1 <0>        -0.1625
      2 C2         -1.4470   -1.2211   -3.6878 C.3       1 <0>        -0.1190
      3 C3         -0.2855   -2.1634   -3.3655 C.3       1 <0>         0.0884
      4 H1          0.6494   -1.7165   -3.7037 H         1 <0>         0.0564
      5 C4         -0.4996   -3.4996   -4.0794 C.3       1 <0>        -0.1850
      6 O1         -0.2263   -2.3812   -1.9545 O.3       1 <0>        -0.3427
      7 C5          1.0904   -2.6345   -1.4602 C.3       1 <0>         0.1216
      8 H2          1.8151   -2.1105   -2.0833 H         1 <0>         0.0760
      9 C6          1.3654   -4.1092   -1.5099 C.2       1 <0>        -0.1639
     10 C7          1.9625   -4.7753   -0.5441 C.2       1 <0>        -0.1344
     11 C8          2.4362   -4.1469    0.7340 C.3       1 <0>        -0.0824
     12 C9          2.5199   -2.6275    0.5744 C.3       1 <0>         0.0252
     13 H3          3.3421   -2.3743   -0.0950 H         1 <0>         0.1525
     14 C10         1.1981   -2.1268   -0.0208 C.3       1 <0>         0.1273
     15 H4          0.3638   -2.5076    0.5683 H         1 <0>         0.1271
     16 N1          1.1783   -0.6620   -0.0127 N.am      1 <0>        -0.7529
     17 C11         0.0021   -0.0041    0.0020 C.2       1 <0>         0.5101
     18 O2         -1.0399   -0.6247    0.0086 O.2       1 <0>        -0.4901
     19 C12        -0.0184    1.5028    0.0103 C.3       1 <0>        -0.1769
     20 C13         2.1770   -6.2174   -0.7276 C.2       1 <0>         0.4782
     21 O3          1.8070   -6.7617   -1.7494 O.co2     1 <0>        -0.6155
     22 H5         -1.0716    0.0585   -1.9960 H         1 <0>         0.0721
     23 H6         -0.2498    0.5593   -3.4934 H         1 <0>         0.0442
     24 H7         -1.9998    0.8258   -3.3067 H         1 <0>         0.0531
     25 H8         -1.5477   -1.1251   -4.7689 H         1 <0>         0.0742
     26 H9         -2.3695   -1.6258   -3.2715 H         1 <0>         0.0732
     27 H10        -0.5448   -3.3334   -5.1557 H         1 <0>         0.0649
     28 H11         0.3279   -4.1709   -3.8498 H         1 <0>         0.0684
     29 H12        -1.4345   -3.9464   -3.7412 H         1 <0>         0.0670
     30 H13         1.0557   -4.6552   -2.3887 H         1 <0>         0.1411
     31 H14         3.4217   -4.5386    0.9857 H         1 <0>         0.1147
     32 H15         1.7364   -4.3881    1.5341 H         1 <0>         0.0979
     33 H16         2.0116   -0.1656   -0.0180 H         1 <0>         0.3962
     34 H17         1.0042    1.8801    0.0026 H         1 <0>         0.0755
     35 H18        -0.5455    1.8639   -0.8728 H         1 <0>         0.1017
     36 H19        -0.5286    1.8543    0.9071 H         1 <0>         0.0992
     37 H20         3.6032   -2.3202    2.2979 H         1 <0>         0.4425
     38 H21         2.7158   -0.9982    1.8176 H         1 <0>         0.4283
     39 N2          2.7173   -2.0136    1.8994 N.4       1 <0>        -0.6388
     40 H22         1.9527   -2.3007    2.5217 H         1 <0>         0.4400
     41 O4          2.7842   -6.9367    0.2373 O.co2     1 <0>        -0.7529
@<TRIPOS>BOND
     1    1    2 1
     2    1   22 1
     3    1   23 1
     4    1   24 1
     5    2    3 1
     6    2   25 1
     7    2   26 1
     8    3    4 1
     9    3    5 1
    10    3    6 1
    11    5   27 1
    12    5   28 1
    13    5   29 1
    14    6    7 1
    15    7    8 1
    16    7   14 1
    17    7    9 1
    18    9   10 2
    19    9   30 1
    20   10   11 1
    21   10   20 1
    22   11   12 1
    23   11   31 1
    24   11   32 1
    25   12   13 1
    26   12   14 1
    27   12   39 1
    28   14   15 1
    29   14   16 1
    30   16   17 am
    31   16   33 1
    32   17   18 2
    33   17   19 1
    34   19   34 1
    35   19   35 1
    36   19   36 1
    37   20   21 2
    38   20   41 1
    39   37   39 1
    40   38   39 1
    41   39   40 1
@<TRIPOS>MOLECULE
ZINC04134487
   44    44     0     0     0
SMALL
USER_CHARGES

@<TRIPOS>ATOM
      1 C1          6.9646    7.4269    1.1815 C.3       1 <0>        -0.1540
      2 C2          6.2856    6.2053    1.8040 C.3       1 <0>        -0.1239
      3 C3          5.4393    5.4970    0.7444 C.3       1 <0>        -0.1175
      4 C4          4.7602    4.2754    1.3669 C.3       1 <0>        -0.1158
      5 C5          3.9139    3.5670    0.3072 C.3       1 <0>         0.0609
      6 O1          3.2796    2.4261    0.8887 O.3       1 <0>        -0.3517
      7 C6          2.4606    1.6895   -0.0216 C.3       1 <0>         0.1219
      8 H1          2.8660    1.7828   -1.0291 H         1 <0>         0.0762
      9 C7          1.0659    2.2435    0.0039 C.2       1 <0>        -0.1603
     10 C8         -0.0183    1.4967    0.0103 C.2       1 <0>        -0.1325
     11 C9          0.0021   -0.0041    0.0020 C.3       1 <0>        -0.0823
     12 C10         1.3775   -0.5097   -0.4380 C.3       1 <0>         0.0256
     13 H2          1.5241   -0.2974   -1.4970 H         1 <0>         0.1527
     14 C11         2.4491    0.2147    0.3859 C.3       1 <0>         0.1280
     15 H3          2.2147    0.1299    1.4470 H         1 <0>         0.1267
     16 N1          3.7603   -0.3830    0.1222 N.am      1 <0>        -0.7537
     17 C12         4.7403   -0.2912    1.0430 C.2       1 <0>         0.5094
     18 O2          4.5365    0.2863    2.0898 O.2       1 <0>        -0.4939
     19 C13         6.0891   -0.9061    0.7717 C.3       1 <0>        -0.1736
     20 C14        -1.3237    2.1714    0.0200 C.2       1 <0>         0.4781
     21 O3         -1.3802    3.3855    0.0269 O.co2     1 <0>        -0.6153
     22 H4          6.2053    8.1123    0.8052 H         1 <0>         0.0550
     23 H5          7.5675    7.9315    1.9364 H         1 <0>         0.0548
     24 H6          7.6049    7.1070    0.3594 H         1 <0>         0.0527
     25 H7          5.6453    6.5252    2.6262 H         1 <0>         0.0638
     26 H8          7.0449    5.5199    2.1804 H         1 <0>         0.0611
     27 H9          6.0795    5.1771   -0.0778 H         1 <0>         0.0608
     28 H10         4.6799    6.1824    0.3680 H         1 <0>         0.0655
     29 H11         4.1199    4.5952    2.1890 H         1 <0>         0.0732
     30 H12         5.5196    3.5900    1.7433 H         1 <0>         0.0688
     31 H13         4.5541    3.2472   -0.5149 H         1 <0>         0.0439
     32 H14         3.1545    4.2525   -0.0691 H         1 <0>         0.0550
     33 H15         0.9447    3.3166    0.0179 H         1 <0>         0.1358
     34 H16        -0.2153   -0.3739    1.0040 H         1 <0>         0.0984
     35 H17        -0.7546   -0.3719   -0.6909 H         1 <0>         0.1151
     36 H18         3.9233   -0.8449   -0.7150 H         1 <0>         0.3962
     37 H19         6.7305   -0.1735    0.2819 H         1 <0>         0.0981
     38 H20         6.5435   -1.2151    1.7131 H         1 <0>         0.0983
     39 H21         5.9689   -1.7745    0.1240 H         1 <0>         0.0784
     40 H22         0.7620   -2.4533   -0.7244 H         1 <0>         0.4427
     41 H23         2.3912   -2.3016   -0.4267 H         1 <0>         0.4285
     42 N2          1.4650   -1.9577   -0.1787 N.4       1 <0>        -0.6387
     43 H24         1.2988   -2.1324    0.8194 H         1 <0>         0.4401
     44 O4         -2.4585    1.4438    0.0213 O.co2     1 <0>        -0.7524
@<TRIPOS>BOND
     1    1    2 1
     2    1   22 1
     3    1   23 1
     4    1   24 1
     5    2    3 1
     6    2   25 1
     7    2   26 1
     8    3    4 1
     9    3   27 1
    10    3   28 1
    11    4    5 1
    12    4   29 1
    13    4   30 1
    14    5    6 1
    15    5   31 1
    16    5   32 1
    17    6    7 1
    18    7    8 1
    19    7   14 1
    20    7    9 1
    21    9   10 2
    22    9   33 1
    23   10   11 1
    24   10   20 1
    25   11   12 1
    26   11   34 1
    27   11   35 1
    28   12   13 1
    29   12   14 1
    30   12   42 1
    31   14   15 1
    32   14   16 1
    33   16   17 am
    34   16   36 1
    35   17   18 2
    36   17   19 1
    37   19   37 1
    38   19   38 1
    39   19   39 1
    40   20   21 2
    41   20   44 1
    42   40   42 1
    43   41   42 1
    44   42   43 1
@<TRIPOS>MOLECULE
ZINC04134488
   47    47     0     0     0
SMALL
USER_CHARGES

@<TRIPOS>ATOM
      1 C1          7.8109    8.1352    2.2412 C.3       1 <0>        -0.1543
      2 C2          6.9646    7.4269    1.1815 C.3       1 <0>        -0.1257
      3 C3          6.2856    6.2053    1.8040 C.3       1 <0>        -0.1193
      4 C4          5.4393    5.4970    0.7444 C.3       1 <0>        -0.1174
      5 C5          4.7602    4.2754    1.3669 C.3       1 <0>        -0.1152
      6 C6          3.9139    3.5670    0.3072 C.3       1 <0>         0.0609
      7 O1          3.2796    2.4261    0.8887 O.3       1 <0>        -0.3516
      8 C7          2.4606    1.6895   -0.0216 C.3       1 <0>         0.1220
      9 H1          2.8660    1.7828   -1.0291 H         1 <0>         0.0762
     10 C8          1.0659    2.2435    0.0039 C.2       1 <0>        -0.1602
     11 C9         -0.0183    1.4967    0.0103 C.2       1 <0>        -0.1325
     12 C10         0.0021   -0.0041    0.0020 C.3       1 <0>        -0.0823
     13 C11         1.3775   -0.5097   -0.4380 C.3       1 <0>         0.0255
     14 H2          1.5241   -0.2974   -1.4970 H         1 <0>         0.1527
     15 C12         2.4491    0.2147    0.3859 C.3       1 <0>         0.1277
     16 H3          2.2147    0.1299    1.4470 H         1 <0>         0.1267
     17 N1          3.7603   -0.3830    0.1222 N.am      1 <0>        -0.7531
     18 C13         4.7403   -0.2912    1.0430 C.2       1 <0>         0.5096
     19 O2          4.5365    0.2863    2.0898 O.2       1 <0>        -0.4946
     20 C14         6.0891   -0.9061    0.7717 C.3       1 <0>        -0.1724
     21 C15        -1.3237    2.1714    0.0200 C.2       1 <0>         0.4780
     22 O3         -1.3802    3.3855    0.0269 O.co2     1 <0>        -0.6153
     23 H4          8.2947    9.0055    1.7976 H         1 <0>         0.0538
     24 H5          7.1707    8.4551    3.0633 H         1 <0>         0.0545
     25 H6          8.5703    7.4498    2.6175 H         1 <0>         0.0530
     26 H7          7.6049    7.1070    0.3594 H         1 <0>         0.0597
     27 H8          6.2053    8.1123    0.8052 H         1 <0>         0.0619
     28 H9          5.6453    6.5252    2.6262 H         1 <0>         0.0641
     29 H10         7.0449    5.5199    2.1804 H         1 <0>         0.0614
     30 H11         6.0795    5.1771   -0.0778 H         1 <0>         0.0608
     31 H12         4.6799    6.1824    0.3680 H         1 <0>         0.0655
     32 H13         4.1199    4.5952    2.1890 H         1 <0>         0.0731
     33 H14         5.5196    3.5900    1.7433 H         1 <0>         0.0687
     34 H15         4.5541    3.2472   -0.5149 H         1 <0>         0.0440
     35 H16         3.1545    4.2525   -0.0691 H         1 <0>         0.0550
     36 H17         0.9447    3.3166    0.0179 H         1 <0>         0.1358
     37 H18        -0.2153   -0.3739    1.0040 H         1 <0>         0.0984
     38 H19        -0.7546   -0.3719   -0.6909 H         1 <0>         0.1150
     39 H20         3.9233   -0.8449   -0.7150 H         1 <0>         0.3961
     40 H21         6.0826   -1.3773   -0.2111 H         1 <0>         0.0749
     41 H22         6.8540   -0.1300    0.7975 H         1 <0>         0.1003
     42 H23         6.3063   -1.6558    1.5326 H         1 <0>         0.0986
     43 H24         0.7620   -2.4533   -0.7244 H         1 <0>         0.4427
     44 H25         2.3912   -2.3016   -0.4267 H         1 <0>         0.4285
     45 N2          1.4650   -1.9577   -0.1787 N.4       1 <0>        -0.6387
     46 H26         1.2988   -2.1324    0.8194 H         1 <0>         0.4401
     47 O4         -2.4585    1.4438    0.0213 O.co2     1 <0>        -0.7524
@<TRIPOS>BOND
     1    1    2 1
     2    1   23 1
     3    1   24 1
     4    1   25 1
     5    2    3 1
     6    2   26 1
     7    2   27 1
     8    3    4 1
     9    3   28 1
    10    3   29 1
    11    4    5 1
    12    4   30 1
    13    4   31 1
    14    5    6 1
    15    5   32 1
    16    5   33 1
    17    6    7 1
    18    6   34 1
    19    6   35 1
    20    7    8 1
    21    8    9 1
    22    8   15 1
    23    8   10 1
    24   10   11 2
    25   10   36 1
    26   11   12 1
    27   11   21 1
    28   12   13 1
    29   12   37 1
    30   12   38 1
    31   13   14 1
    32   13   15 1
    33   13   45 1
    34   15   16 1
    35   15   17 1
    36   17   18 am
    37   17   39 1
    38   18   19 2
    39   18   20 1
    40   20   40 1
    41   20   41 1
    42   20   42 1
    43   21   22 2
    44   21   47 1
    45   43   45 1
    46   44   45 1
    47   45   46 1
@<TRIPOS>MOLECULE
ZINC04134489
   45    45     0     0     0
SMALL
USER_CHARGES

@<TRIPOS>ATOM
      1 C1         -0.0187    1.5258    0.0104 C.3       1 <0>        -0.1687
      2 C2          0.0021   -0.0041    0.0020 C.3       1 <0>        -0.1463
      3 C3         -1.4333   -0.5336    0.0129 C.3       1 <0>         0.0917
      4 H1         -1.9701   -0.1109    0.8621 H         1 <0>         0.0647
      5 C4         -1.4133   -2.0590    0.1302 C.3       1 <0>        -0.0878
      6 C5         -2.8242   -2.5711    0.2645 C.2       1 <0>        -0.1557
      7 C6         -3.2749   -3.4755   -0.5692 C.2       1 <0>        -0.1804
      8 O1         -2.0889   -0.1578   -1.2000 O.3       1 <0>        -0.3354
      9 C7         -2.7597    1.1021   -1.1317 C.3       1 <0>         0.1119
     10 H2         -2.2428    1.7488   -0.4227 H         1 <0>         0.0854
     11 C8         -4.1727    0.8892   -0.6724 C.2       1 <0>        -0.1561
     12 C9         -5.2133    1.5004   -1.1984 C.2       1 <0>        -0.1361
     13 C10        -5.1205    2.4817   -2.3304 C.3       1 <0>        -0.0813
     14 C11        -3.6804    2.9760   -2.4822 C.3       1 <0>         0.0244
     15 H3         -3.4211    3.6136   -1.6370 H         1 <0>         0.1521
     16 C12        -2.7485    1.7583   -2.5139 C.3       1 <0>         0.1277
     17 H4         -3.1010    1.0463   -3.2601 H         1 <0>         0.1265
     18 N1         -1.3874    2.1888   -2.8433 N.am      1 <0>        -0.7533
     19 C13        -0.5198    1.3172   -3.3945 C.2       1 <0>         0.5113
     20 O2         -0.8657    0.1764   -3.6179 O.2       1 <0>        -0.4908
     21 C14         0.8803    1.7600   -3.7333 C.3       1 <0>        -0.1737
     22 C15        -6.5423    1.2053   -0.6451 C.2       1 <0>         0.4788
     23 O3         -6.6571    0.4163    0.2721 O.co2     1 <0>        -0.6156
     24 H5          1.0039    1.9031    0.0027 H         1 <0>         0.0561
     25 H6         -0.5459    1.8868   -0.8726 H         1 <0>         0.0626
     26 H7         -0.5289    1.8773    0.9072 H         1 <0>         0.0544
     27 H8          0.5123   -0.3556   -0.8948 H         1 <0>         0.0700
     28 H9          0.5293   -0.3651    0.8851 H         1 <0>         0.0731
     29 H10        -0.9551   -2.4861   -0.7619 H         1 <0>         0.0751
     30 H11        -0.8366   -2.3483    1.0088 H         1 <0>         0.0838
     31 H12        -3.4638   -2.1924    1.0480 H         1 <0>         0.1086
     32 H13        -4.2861   -3.8425   -0.4730 H         1 <0>         0.0972
     33 H14        -2.6352   -3.8542   -1.3527 H         1 <0>         0.0929
     34 H15        -4.3458    0.1944    0.1361 H         1 <0>         0.1349
     35 H16        -5.4358    1.9979   -3.2548 H         1 <0>         0.0974
     36 H17        -5.7724    3.3312   -2.1266 H         1 <0>         0.1140
     37 H18        -1.1107    3.1012   -2.6646 H         1 <0>         0.3955
     38 H19         1.0051    2.8086   -3.4630 H         1 <0>         0.0747
     39 H20         1.5971    1.1541   -3.1791 H         1 <0>         0.1001
     40 H21         1.0513    1.6377   -4.8029 H         1 <0>         0.0982
     41 H22        -4.1647    4.5303   -3.7424 H         1 <0>         0.4426
     42 H23        -2.5907    4.0132   -3.8876 H         1 <0>         0.4282
     43 N2         -3.5549    3.7143   -3.7513 N.4       1 <0>        -0.6389
     44 H24        -3.8283    3.1002   -4.5274 H         1 <0>         0.4401
     45 O4         -7.6340    1.8096   -1.1550 O.co2     1 <0>        -0.7538
@<TRIPOS>BOND
     1    1    2 1
     2    1   24 1
     3    1   25 1
     4    1   26 1
     5    2    3 1
     6    2   27 1
     7    2   28 1
     8    3    4 1
     9    3    5 1
    10    3    8 1
    11    5    6 1
    12    5   29 1
    13    5   30 1
    14    6    7 2
    15    6   31 1
    16    7   32 1
    17    7   33 1
    18    8    9 1
    19    9   10 1
    20    9   16 1
    21    9   11 1
    22   11   12 2
    23   11   34 1
    24   12   13 1
    25   12   22 1
    26   13   14 1
    27   13   35 1
    28   13   36 1
    29   14   15 1
    30   14   16 1
    31   14   43 1
    32   16   17 1
    33   16   18 1
    34   18   19 am
    35   18   37 1
    36   19   20 2
    37   19   21 1
    38   21   38 1
    39   21   39 1
    40   21   40 1
    41   22   23 2
    42   22   45 1
    43   41   43 1
    44   42   43 1
    45   43   44 1
@<TRIPOS>MOLECULE
ZINC04134490
   45    45     0     0     0
SMALL
USER_CHARGES

@<TRIPOS>ATOM
      1 C1         -0.2058    6.5702    1.9514 C.3       1 <0>        -0.1526
      2 C2          0.9488    7.3931    1.3763 C.3       1 <0>        -0.1224
      3 C3          1.5226    6.6796    0.1506 C.3       1 <0>         0.0933
      4 H1          0.7226    6.4834   -0.5633 H         1 <0>         0.0660
      5 C4          2.5847    7.5651   -0.5042 C.3       1 <0>        -0.1141
      6 C5          3.0620    6.9180   -1.7788 C.2       1 <0>        -0.1609
      7 C6          3.0121    7.5800   -2.9081 C.2       1 <0>        -0.1901
      8 O1          2.1155    5.4433    0.5533 O.3       1 <0>        -0.3382
      9 C7          1.8669    4.3598   -0.3447 C.3       1 <0>         0.1177
     10 H2          1.8564    4.7360   -1.3676 H         1 <0>         0.0780
     11 C8          0.5348    3.7455   -0.0267 C.2       1 <0>        -0.1623
     12 C9          0.3159    2.4478    0.0044 C.2       1 <0>        -0.1342
     13 C10         1.3742    1.4164   -0.2589 C.3       1 <0>        -0.0820
     14 C11         2.5661    2.0583   -0.9754 C.3       1 <0>         0.0249
     15 H3          2.2830    2.3313   -1.9920 H         1 <0>         0.1524
     16 C12         2.9763    3.3160   -0.1995 C.3       1 <0>         0.1296
     17 H4          3.1112    3.0690    0.8535 H         1 <0>         0.1269
     18 N1          4.2276    3.8488   -0.7442 N.am      1 <0>        -0.7558
     19 C13         5.0264    4.6135    0.0263 C.2       1 <0>         0.5113
     20 O2          4.7092    4.8606    1.1705 O.2       1 <0>        -0.4896
     21 C14         6.3135    5.1615   -0.5340 C.3       1 <0>        -0.1773
     22 C15        -1.0413    1.9819    0.3210 C.2       1 <0>         0.4783
     23 O3         -1.9247    2.7875    0.5399 O.co2     1 <0>        -0.6147
     24 H5          0.1763    5.6211    2.3272 H         1 <0>         0.0627
     25 H6         -0.6743    7.1217    2.7666 H         1 <0>         0.0551
     26 H7         -0.9421    6.3817    1.1701 H         1 <0>         0.0557
     27 H8          1.7278    7.5028    2.1308 H         1 <0>         0.0711
     28 H9          0.5834    8.3780    1.0855 H         1 <0>         0.0732
     29 H10         2.1549    8.5407   -0.7309 H         1 <0>         0.0778
     30 H11         3.4259    7.6883    0.1779 H         1 <0>         0.0810
     31 H12         3.4452    5.9084   -1.7612 H         1 <0>         0.1045
     32 H13         2.6288    8.5896   -2.9256 H         1 <0>         0.0987
     33 H14         3.3541    7.1163   -3.8215 H         1 <0>         0.0958
     34 H15        -0.2918    4.4063    0.1887 H         1 <0>         0.1376
     35 H16         1.7048    0.9881    0.6874 H         1 <0>         0.0984
     36 H17         0.9608    0.6265   -0.8859 H         1 <0>         0.1142
     37 H18         4.4812    3.6512   -1.6594 H         1 <0>         0.3953
     38 H19         6.0952    5.7931   -1.3951 H         1 <0>         0.0907
     39 H20         6.8204    5.7512    0.2299 H         1 <0>         0.0981
     40 H21         6.9560    4.3366   -0.8420 H         1 <0>         0.0873
     41 H22         3.4405    0.2745   -1.5154 H         1 <0>         0.4426
     42 H23         4.5125    1.5408   -1.4017 H         1 <0>         0.4282
     43 N2          3.6911    1.1067   -0.9841 N.4       1 <0>        -0.6389
     44 H24         3.9103    0.8344   -0.0187 H         1 <0>         0.4402
     45 O4         -1.3079    0.6612    0.3631 O.co2     1 <0>        -0.7533
@<TRIPOS>BOND
     1    1    2 1
     2    1   24 1
     3    1   25 1
     4    1   26 1
     5    2    3 1
     6    2   27 1
     7    2   28 1
     8    3    4 1
     9    3    5 1
    10    3    8 1
    11    5    6 1
    12    5   29 1
    13    5   30 1
    14    6    7 2
    15    6   31 1
    16    7   32 1
    17    7   33 1
    18    8    9 1
    19    9   10 1
    20    9   16 1
    21    9   11 1
    22   11   12 2
    23   11   34 1
    24   12   13 1
    25   12   22 1
    26   13   14 1
    27   13   35 1
    28   13   36 1
    29   14   15 1
    30   14   16 1
    31   14   43 1
    32   16   17 1
    33   16   18 1
    34   18   19 am
    35   18   37 1
    36   19   20 2
    37   19   21 1
    38   21   38 1
    39   21   39 1
    40   21   40 1
    41   22   23 2
    42   22   45 1
    43   41   43 1
    44   42   43 1
    45   43   44 1
@<TRIPOS>MOLECULE
ZINC04134491
   57    58     0     0     0
SMALL
USER_CHARGES

@<TRIPOS>ATOM
      1 C1          3.9997    7.2090    1.1565 C.3       1 <0>        -0.1558
      2 C2          4.9754    6.9776    0.0008 C.3       1 <0>        -0.1460
      3 C3          4.7647    5.5743   -0.5713 C.3       1 <0>         0.0856
      4 H1          4.8236    4.8413    0.2333 H         1 <0>         0.0722
      5 C4          5.8482    5.2792   -1.6104 C.3       1 <0>        -0.1134
      6 C5          5.7131    3.8331   -2.0915 C.3       1 <0>        -0.0866
      7 C6          5.9971    2.8801   -0.9287 C.3       1 <0>        -0.1109
      8 C7          5.8620    1.4340   -1.4098 C.3       1 <0>        -0.1195
      9 C8          6.8638    1.1759   -2.5371 C.3       1 <0>        -0.1188
     10 C9          6.5797    2.1288   -3.6999 C.3       1 <0>        -0.1194
     11 C10         6.7148    3.5749   -3.2188 C.3       1 <0>        -0.1103
     12 O1          3.4786    5.5002   -1.1899 O.3       1 <0>        -0.3543
     13 C11         2.4643    4.9361   -0.3562 C.3       1 <0>         0.1238
     14 H2          2.6228    5.2572    0.6733 H         1 <0>         0.0816
     15 C12         2.5394    3.4384   -0.4195 C.2       1 <0>        -0.1776
     16 C13         1.4853    2.6562   -0.5193 C.2       1 <0>        -0.1244
     17 C14         0.0734    3.1621   -0.5797 C.3       1 <0>        -0.0855
     18 C15         0.0126    4.6125   -0.0963 C.3       1 <0>         0.0204
     19 H3          0.1936    4.6484    0.9780 H         1 <0>         0.1479
     20 C16         1.0916    5.4166   -0.8318 C.3       1 <0>         0.1242
     21 H4          0.9972    5.2589   -1.9062 H         1 <0>         0.1322
     22 N1          0.9365    6.8414   -0.5280 N.am      1 <0>        -0.7330
     23 C17         0.2056    7.6283   -1.3423 C.2       1 <0>         0.5059
     24 O2         -0.3237    7.1569   -2.3264 O.2       1 <0>        -0.5424
     25 C18         0.0460    9.0939   -1.0298 C.3       1 <0>        -0.1778
     26 C19         1.7030    1.2037   -0.5685 C.2       1 <0>         0.4771
     27 O3          2.8322    0.7566   -0.5220 O.co2     1 <0>        -0.6066
     28 H5          4.1750    6.4657    1.9343 H         1 <0>         0.0580
     29 H6          4.1526    8.2072    1.5667 H         1 <0>         0.0611
     30 H7          2.9765    7.1189    0.7917 H         1 <0>         0.0438
     31 H8          5.9985    7.0717    0.3647 H         1 <0>         0.0771
     32 H9          4.7974    7.7183   -0.7788 H         1 <0>         0.0715
     33 H10         5.7335    5.9560   -2.4571 H         1 <0>         0.0697
     34 H11         6.8310    5.4224   -1.1613 H         1 <0>         0.0758
     35 H12         4.7008    3.6657   -2.4595 H         1 <0>         0.0783
     36 H13         7.0094    3.0475   -0.5607 H         1 <0>         0.0542
     37 H14         5.2835    3.0640   -0.1256 H         1 <0>         0.0577
     38 H15         4.8498    1.2666   -1.7778 H         1 <0>         0.0821
     39 H16         6.0644    0.7551   -0.5814 H         1 <0>         0.0590
     40 H17         6.7675    0.1457   -2.8798 H         1 <0>         0.0587
     41 H18         7.8760    1.3433   -2.1691 H         1 <0>         0.0545
     42 H19         5.5675    1.9614   -4.0679 H         1 <0>         0.0614
     43 H20         7.2933    1.9449   -4.5030 H         1 <0>         0.0568
     44 H21         6.5124    4.2539   -4.0472 H         1 <0>         0.0568
     45 H22         7.7270    3.7424   -2.8508 H         1 <0>         0.0582
     46 H23         3.5148    2.9760   -0.3854 H         1 <0>         0.1477
     47 H24        -0.2860    3.1083   -1.6073 H         1 <0>         0.0981
     48 H25        -0.5594    2.5441    0.0573 H         1 <0>         0.1136
     49 H26         1.3598    7.2183    0.2591 H         1 <0>         0.4103
     50 H27         0.5882    9.3314   -0.1146 H         1 <0>         0.0822
     51 H28         0.4453    9.6864   -1.8529 H         1 <0>         0.1066
     52 H29        -1.0110    9.3238   -0.8960 H         1 <0>         0.1018
     53 H30        -2.0392    4.6521    0.0690 H         1 <0>         0.4393
     54 H31        -1.3530    6.1525   -0.1407 H         1 <0>         0.4241
     55 N2         -1.3117    5.1731   -0.4178 N.4       1 <0>        -0.6371
     56 H32        -1.4706    5.1044   -1.4299 H         1 <0>         0.4430
     57 O4          0.6504    0.3673   -0.6652 O.co2     1 <0>        -0.7528
@<TRIPOS>BOND
     1    1    2 1
     2    1   28 1
     3    1   29 1
     4    1   30 1
     5    2    3 1
     6    2   31 1
     7    2   32 1
     8    3    4 1
     9    3    5 1
    10    3   12 1
    11    5    6 1
    12    5   33 1
    13    5   34 1
    14    6   11 1
    15    6    7 1
    16    6   35 1
    17    7    8 1
    18    7   36 1
    19    7   37 1
    20    8    9 1
    21    8   38 1
    22    8   39 1
    23    9   10 1
    24    9   40 1
    25    9   41 1
    26   10   11 1
    27   10   42 1
    28   10   43 1
    29   11   44 1
    30   11   45 1
    31   12   13 1
    32   13   14 1
    33   13   20 1
    34   13   15 1
    35   15   16 2
    36   15   46 1
    37   16   17 1
    38   16   26 1
    39   17   18 1
    40   17   47 1
    41   17   48 1
    42   18   19 1
    43   18   20 1
    44   18   55 1
    45   20   21 1
    46   20   22 1
    47   22   23 am
    48   22   49 1
    49   23   24 2
    50   23   25 1
    51   25   50 1
    52   25   51 1
    53   25   52 1
    54   26   27 2
    55   26   57 1
    56   53   55 1
    57   54   55 1
    58   55   56 1
@<TRIPOS>MOLECULE
ZINC04134492
   34    34     0     0     0
SMALL
USER_CHARGES

@<TRIPOS>ATOM
      1 C1         -0.6346    3.3144   -2.9888 C.3       1 <0>        -0.1704
      2 C2         -0.4031    3.2476   -1.5012 C.2       1 <0>         0.5087
      3 O1         -1.3474    3.1793   -0.7431 O.2       1 <0>        -0.5014
      4 N1          0.8531    3.2638   -1.0133 N.am      1 <0>        -0.7377
      5 C3          1.0781    3.1988    0.4329 C.3       1 <0>         0.1373
      6 H1          0.2886    3.7431    0.9511 H         1 <0>         0.1179
      7 C4          2.4414    3.8149    0.7703 C.3       1 <0>         0.1283
      8 H2          3.2367    3.1839    0.3737 H         1 <0>         0.1177
      9 C5          2.5672    3.9121    2.2921 C.3       1 <0>        -0.0735
     10 C6          2.2189    2.5961    2.9244 C.2       1 <0>        -0.1272
     11 C7          1.5594    1.6390    2.3065 C.2       1 <0>        -0.1818
     12 C8          1.0792    1.7379    0.8878 C.3       1 <0>         0.1367
     13 H3          1.7409    1.1593    0.2433 H         1 <0>         0.0650
     14 O2         -0.2469    1.2130    0.7988 O.3       1 <0>        -0.5398
     15 C9          2.6380    2.3628    4.3135 C.2       1 <0>         0.4776
     16 O3          2.3741    1.3094    4.8590 O.co2     1 <0>        -0.6191
     17 C10         3.3606    5.4992   -0.7734 C.cat     1 <0>         0.7383
     18 N2          4.1163    4.5405   -1.4062 N.pl3     1 <0>        -0.8117
     19 N3          3.4725    6.8181   -1.1446 N.pl3     1 <0>        -0.8135
     20 H4          0.3245    3.3710   -3.5036 H         1 <0>         0.0695
     21 H5         -1.1692    2.4218   -3.3138 H         1 <0>         0.0992
     22 H6         -1.2266    4.1987   -3.2250 H         1 <0>         0.0952
     23 H7          1.6082    3.3183   -1.6196 H         1 <0>         0.3856
     24 H8          3.5912    4.1789    2.5537 H         1 <0>         0.1046
     25 H9          1.8879    4.6798    2.6626 H         1 <0>         0.0935
     26 H10         1.3517    0.7301    2.8518 H         1 <0>         0.1346
     27 H11        -0.3231    0.2886    1.0720 H         1 <0>         0.3843
     28 H12         3.9222    3.6003   -1.2673 H         1 <0>         0.4346
     29 H13         4.8435    4.8045   -1.9913 H         1 <0>         0.4389
     30 H14         2.9394    7.4945   -0.6982 H         1 <0>         0.4377
     31 H15         4.0845    7.0725   -1.8529 H         1 <0>         0.4345
     32 O4          3.3151    3.3173    4.9824 O.co2     1 <0>        -0.7524
     33 N4          2.4942    5.2068    0.2042 N.pl3     1 <0>        -0.6663
     34 H16         1.8658    5.9330    0.5674 H         1 <0>         0.4551
@<TRIPOS>BOND
     1    1    2 1
     2    1   20 1
     3    1   21 1
     4    1   22 1
     5    2    3 2
     6    2    4 am
     7    4    5 1
     8    4   23 1
     9    5    6 1
    10    5   12 1
    11    5    7 1
    12    7    8 1
    13    7    9 1
    14    7   33 1
    15    9   10 1
    16    9   24 1
    17    9   25 1
    18   10   11 2
    19   10   15 1
    20   11   12 1
    21   11   26 1
    22   12   13 1
    23   12   14 1
    24   14   27 1
    25   15   16 2
    26   15   32 1
    27   17   18 1
    28   17   19 1
    29   17   33 2
    30   18   28 1
    31   18   29 1
    32   19   30 1
    33   19   31 1
    34   33   34 1
@<TRIPOS>MOLECULE
ZINC04134493
   43    43     0     0     0
SMALL
USER_CHARGES

@<TRIPOS>ATOM
      1 C1         -4.4771   -0.4072   -1.7585 C.3       1 <0>        -0.1500
      2 C2         -3.0214   -0.5649   -2.2025 C.3       1 <0>        -0.1206
      3 C3         -2.1013    0.1093   -1.1828 C.3       1 <0>         0.0605
      4 O1         -0.7418   -0.0379   -1.5976 O.3       1 <0>        -0.3511
      5 C4          0.2048    0.5599   -0.7095 C.3       1 <0>         0.1210
      6 H1         -0.1927    0.5408    0.3053 H         1 <0>         0.0701
      7 C5          0.4454    1.9826   -1.1229 C.2       1 <0>        -0.1661
      8 C6          1.6359    2.5436   -1.1568 C.2       1 <0>        -0.1301
      9 C7          2.9055    1.8295   -0.7949 C.3       1 <0>        -0.0724
     10 C8          2.5882    0.5609   -0.0006 C.3       1 <0>         0.1285
     11 H2          2.2179    0.8279    0.9891 H         1 <0>         0.1170
     12 C9          1.5139   -0.2308   -0.7563 C.3       1 <0>         0.1337
     13 H3          1.8199   -0.3714   -1.7931 H         1 <0>         0.1200
     14 N1          1.3239   -1.5357   -0.1181 N.am      1 <0>        -0.7392
     15 C10         0.8277   -2.5676   -0.8288 C.2       1 <0>         0.5072
     16 O2          0.5385   -2.4161   -1.9969 O.2       1 <0>        -0.4987
     17 C11         0.6323   -3.9099   -0.1723 C.3       1 <0>        -0.1722
     18 C12         4.2832   -0.7061    1.2590 C.cat     1 <0>         0.7380
     19 N2          3.5650   -0.5559    2.4216 N.pl3     1 <0>        -0.8119
     20 N3          5.5079   -1.3303    1.2833 N.pl3     1 <0>        -0.8138
     21 C13         1.7270    3.9499   -1.5734 C.2       1 <0>         0.4788
     22 O3          0.7204    4.5609   -1.8744 O.co2     1 <0>        -0.6191
     23 H4         -4.6120   -0.8743   -0.7828 H         1 <0>         0.0528
     24 H5         -4.7238    0.6524   -1.6913 H         1 <0>         0.0579
     25 H6         -5.1325   -0.8875   -2.4849 H         1 <0>         0.0618
     26 H7         -2.8866   -0.0978   -3.1781 H         1 <0>         0.0727
     27 H8         -2.7747   -1.6245   -2.2697 H         1 <0>         0.0682
     28 H9         -2.2362   -0.3577   -0.2072 H         1 <0>         0.0418
     29 H10        -2.3480    1.1689   -1.1157 H         1 <0>         0.0537
     30 H11        -0.4067    2.5791   -1.4137 H         1 <0>         0.1332
     31 H12         3.5304    2.4873   -0.1907 H         1 <0>         0.1040
     32 H13         3.4393    1.5611   -1.7065 H         1 <0>         0.0932
     33 H14         1.5551   -1.6569    0.8161 H         1 <0>         0.3857
     34 H15        -0.3682   -3.9621    0.2573 H         1 <0>         0.0956
     35 H16         0.7501   -4.6986   -0.9154 H         1 <0>         0.0962
     36 H17         1.3734   -4.0401    0.6162 H         1 <0>         0.0726
     37 H18         2.6384   -0.2713    2.3860 H         1 <0>         0.4344
     38 H19         3.9848   -0.7347    3.2776 H         1 <0>         0.4388
     39 H20         6.0146   -1.4362    0.4630 H         1 <0>         0.4377
     40 H21         5.8653   -1.6648    2.1208 H         1 <0>         0.4343
     41 N4          3.8375   -0.2723    0.0737 N.pl3     1 <0>        -0.6658
     42 H22         4.3488   -0.5086   -0.7848 H         1 <0>         0.4551
     43 O4          2.9270    4.5621   -1.6216 O.co2     1 <0>        -0.7536
@<TRIPOS>BOND
     1    1    2 1
     2    1   23 1
     3    1   24 1
     4    1   25 1
     5    2    3 1
     6    2   26 1
     7    2   27 1
     8    3    4 1
     9    3   28 1
    10    3   29 1
    11    4    5 1
    12    5    6 1
    13    5   12 1
    14    5    7 1
    15    7    8 2
    16    7   30 1
    17    8    9 1
    18    8   21 1
    19    9   10 1
    20    9   31 1
    21    9   32 1
    22   10   11 1
    23   10   12 1
    24   10   41 1
    25   12   13 1
    26   12   14 1
    27   14   15 am
    28   14   33 1
    29   15   16 2
    30   15   17 1
    31   17   34 1
    32   17   35 1
    33   17   36 1
    34   18   19 1
    35   18   20 1
    36   18   41 2
    37   19   37 1
    38   19   38 1
    39   20   39 1
    40   20   40 1
    41   21   22 2
    42   21   43 1
    43   41   42 1
@<TRIPOS>MOLECULE
ZINC04134494
   46    46     0     0     0
SMALL
USER_CHARGES

@<TRIPOS>ATOM
      1 C1         -0.8608    2.8799    3.4919 C.3       1 <0>        -0.1519
      2 C2         -0.0415    2.5280    2.2486 C.3       1 <0>        -0.1217
      3 C3         -0.9327    2.6184    1.0082 C.3       1 <0>        -0.1159
      4 C4         -0.1135    2.2664   -0.2351 C.3       1 <0>         0.0607
      5 O1         -0.9457    2.3509   -1.3936 O.3       1 <0>        -0.3505
      6 C5         -0.2740    2.0395   -2.6159 C.3       1 <0>         0.1211
      7 H1          0.5190    1.3181   -2.4186 H         1 <0>         0.0700
      8 C6          0.3263    3.2911   -3.1867 C.2       1 <0>        -0.1664
      9 C7          0.2816    3.6079   -4.4637 C.2       1 <0>        -0.1301
     10 C8         -0.3831    2.7621   -5.5106 C.3       1 <0>        -0.0724
     11 C9         -0.6024    1.3437   -4.9804 C.3       1 <0>         0.1285
     12 H2          0.3556    0.8324   -4.8866 H         1 <0>         0.1169
     13 C10        -1.2738    1.4364   -3.6047 C.3       1 <0>         0.1345
     14 H3         -2.1566    2.0728   -3.6670 H         1 <0>         0.1198
     15 N1         -1.6633    0.0973   -3.1559 N.am      1 <0>        -0.7399
     16 C11        -2.6599   -0.0500   -2.2605 C.2       1 <0>         0.5072
     17 O2         -3.2341    0.9260   -1.8263 O.2       1 <0>        -0.4977
     18 C12        -3.0604   -1.4274   -1.7988 C.3       1 <0>        -0.1743
     19 C13        -1.1865   -0.5646   -6.4234 C.cat     1 <0>         0.7381
     20 N2         -0.0761   -1.2552   -5.9992 N.pl3     1 <0>        -0.8118
     21 N3         -1.9994   -1.0997   -7.3946 N.pl3     1 <0>        -0.8139
     22 C14         0.9194    4.8616   -4.8888 C.2       1 <0>         0.4788
     23 O3          1.4675    5.5727   -4.0697 O.co2     1 <0>        -0.6191
     24 H4         -1.2486    3.8941    3.3964 H         1 <0>         0.0566
     25 H5         -1.6914    2.1809    3.5896 H         1 <0>         0.0538
     26 H6         -0.2259    2.8155    4.3756 H         1 <0>         0.0556
     27 H7          0.3464    1.5138    2.3442 H         1 <0>         0.0598
     28 H8          0.7891    3.2270    2.1509 H         1 <0>         0.0648
     29 H9         -1.3205    3.6325    0.9126 H         1 <0>         0.0728
     30 H10        -1.7633    1.9195    1.1058 H         1 <0>         0.0687
     31 H11         0.2745    1.2523   -0.1395 H         1 <0>         0.0418
     32 H12         0.7173    2.9654   -0.3328 H         1 <0>         0.0536
     33 H13         0.8234    3.9711   -2.5109 H         1 <0>         0.1331
     34 H14         0.2487    2.7226   -6.3978 H         1 <0>         0.1040
     35 H15        -1.3451    3.2032   -5.7713 H         1 <0>         0.0931
     36 H16        -1.2040   -0.6833   -3.5031 H         1 <0>         0.3858
     37 H17        -2.2075   -1.9146   -1.3261 H         1 <0>         0.0873
     38 H18        -3.8767   -1.3470   -1.0810 H         1 <0>         0.0964
     39 H19        -3.3868   -2.0172   -2.6554 H         1 <0>         0.0824
     40 H20         0.4016   -0.9655   -5.2063 H         1 <0>         0.4344
     41 H21         0.2297   -2.0322   -6.4929 H         1 <0>         0.4388
     42 H22        -2.7829   -0.6124   -7.6939 H         1 <0>         0.4376
     43 H23        -1.7894   -1.9645   -7.7804 H         1 <0>         0.4342
     44 N4         -1.5306    0.6279   -5.9221 N.pl3     1 <0>        -0.6659
     45 H24        -2.4284    1.0538   -6.1806 H         1 <0>         0.4550
     46 O4          0.8964    5.2230   -6.1873 O.co2     1 <0>        -0.7536
@<TRIPOS>BOND
     1    1    2 1
     2    1   24 1
     3    1   25 1
     4    1   26 1
     5    2    3 1
     6    2   27 1
     7    2   28 1
     8    3    4 1
     9    3   29 1
    10    3   30 1
    11    4    5 1
    12    4   31 1
    13    4   32 1
    14    5    6 1
    15    6    7 1
    16    6   13 1
    17    6    8 1
    18    8    9 2
    19    8   33 1
    20    9   10 1
    21    9   22 1
    22   10   11 1
    23   10   34 1
    24   10   35 1
    25   11   12 1
    26   11   13 1
    27   11   44 1
    28   13   14 1
    29   13   15 1
    30   15   16 am
    31   15   36 1
    32   16   17 2
    33   16   18 1
    34   18   37 1
    35   18   38 1
    36   18   39 1
    37   19   20 1
    38   19   21 1
    39   19   44 2
    40   20   40 1
    41   20   41 1
    42   21   42 1
    43   21   43 1
    44   22   23 2
    45   22   46 1
    46   44   45 1
@<TRIPOS>MOLECULE
ZINC04134495
   46    46     0     0     0
SMALL
USER_CHARGES

@<TRIPOS>ATOM
      1 C1          1.5336    0.5789    3.6975 C.3       1 <0>        -0.1629
      2 C2          0.9163    0.4516    5.0918 C.3       1 <0>        -0.1183
      3 C3          0.1381    1.7265    5.4233 C.3       1 <0>         0.0881
      4 H1          0.7937    2.5906    5.3155 H         1 <0>         0.0544
      5 C4         -0.3740    1.6515    6.8632 C.3       1 <0>        -0.1846
      6 O1         -0.9696    1.8544    4.5297 O.3       1 <0>        -0.3413
      7 C5         -1.3461    3.2063    4.2604 C.3       1 <0>         0.1208
      8 H2         -0.4656    3.8459    4.3229 H         1 <0>         0.0696
      9 C6         -2.3558    3.6537    5.2770 C.2       1 <0>        -0.1698
     10 C7         -3.4300    4.3551    4.9820 C.2       1 <0>        -0.1320
     11 C8         -3.7870    4.7894    3.5902 C.3       1 <0>        -0.0721
     12 C9         -2.5641    4.6864    2.6765 C.3       1 <0>         0.1276
     13 H3         -1.8375    5.4517    2.9495 H         1 <0>         0.1170
     14 C10        -1.9398    3.2968    2.8532 C.3       1 <0>         0.1340
     15 H4         -2.7044    2.5301    2.7283 H         1 <0>         0.1201
     16 N1         -0.8814    3.1027    1.8590 N.am      1 <0>        -0.7394
     17 C11        -0.5264    1.8569    1.4872 C.2       1 <0>         0.5082
     18 O2         -1.0831    0.8964    1.9755 O.2       1 <0>        -0.4933
     19 C12         0.5624    1.6571    0.4645 C.3       1 <0>        -0.1775
     20 C13        -2.4486    5.7285    0.4481 C.cat     1 <0>         0.7378
     21 N2         -1.3307    6.4405    0.8134 N.pl3     1 <0>        -0.8117
     22 N3         -3.0120    5.9216   -0.7911 N.pl3     1 <0>        -0.8140
     23 C14        -4.3319    4.7343    6.0784 C.2       1 <0>         0.4789
     24 O3         -4.0762    4.4005    7.2187 O.co2     1 <0>        -0.6192
     25 H5          2.0879   -0.3294    3.4613 H         1 <0>         0.0513
     26 H6          0.7424    0.7234    2.9618 H         1 <0>         0.0755
     27 H7          2.2100    1.4333    3.6763 H         1 <0>         0.0420
     28 H8          1.7075    0.3071    5.8276 H         1 <0>         0.0721
     29 H9          0.2399   -0.4028    5.1130 H         1 <0>         0.0726
     30 H10        -1.0295    0.7872    6.9709 H         1 <0>         0.0664
     31 H11         0.4710    1.5539    7.5447 H         1 <0>         0.0631
     32 H12        -0.9284    2.5597    7.0994 H         1 <0>         0.0687
     33 H13        -2.1914    3.3848    6.3099 H         1 <0>         0.1384
     34 H14        -4.5811    4.1500    3.2047 H         1 <0>         0.0927
     35 H15        -4.1334    5.8227    3.6119 H         1 <0>         0.1031
     36 H16        -0.4361    3.8708    1.4684 H         1 <0>         0.3858
     37 H17         0.7088    0.5907    0.2932 H         1 <0>         0.0972
     38 H18         1.4899    2.0970    0.8307 H         1 <0>         0.0880
     39 H19         0.2758    2.1393   -0.4701 H         1 <0>         0.0826
     40 H20        -0.8365    6.1920    1.6101 H         1 <0>         0.4344
     41 H21        -1.0363    7.1912    0.2743 H         1 <0>         0.4388
     42 H22        -3.8008    5.4192   -1.0489 H         1 <0>         0.4376
     43 H23        -2.6208    6.5601   -1.4076 H         1 <0>         0.4342
     44 N4         -3.0270    4.8290    1.2531 N.pl3     1 <0>        -0.6656
     45 H24        -3.7868    4.2363    0.8986 H         1 <0>         0.4550
     46 O4         -5.4429    5.4526    5.8194 O.co2     1 <0>        -0.7541
@<TRIPOS>BOND
     1    1    2 1
     2    1   25 1
     3    1   26 1
     4    1   27 1
     5    2    3 1
     6    2   28 1
     7    2   29 1
     8    3    4 1
     9    3    5 1
    10    3    6 1
    11    5   30 1
    12    5   31 1
    13    5   32 1
    14    6    7 1
    15    7    8 1
    16    7   14 1
    17    7    9 1
    18    9   10 2
    19    9   33 1
    20   10   11 1
    21   10   23 1
    22   11   12 1
    23   11   34 1
    24   11   35 1
    25   12   13 1
    26   12   14 1
    27   12   44 1
    28   14   15 1
    29   14   16 1
    30   16   17 am
    31   16   36 1
    32   17   18 2
    33   17   19 1
    34   19   37 1
    35   19   38 1
    36   19   39 1
    37   20   21 1
    38   20   22 1
    39   20   44 2
    40   21   40 1
    41   21   41 1
    42   22   42 1
    43   22   43 1
    44   23   24 2
    45   23   46 1
    46   44   45 1
@<TRIPOS>MOLECULE
ZINC04134496
   46    46     0     0     0
SMALL
USER_CHARGES

@<TRIPOS>ATOM
      1 C1         -1.3852   -2.2480   -3.2770 C.3       1 <0>        -0.1532
      2 C2         -0.5225   -3.2119   -2.4601 C.3       1 <0>        -0.1170
      3 C3          0.0075   -2.4940   -1.2173 C.3       1 <0>         0.0822
      4 H1         -0.8277   -2.0757   -0.6555 H         1 <0>         0.0623
      5 C4          0.7659   -3.4898   -0.3376 C.3       1 <0>        -0.1703
      6 O1          0.8888   -1.4417   -1.6146 O.3       1 <0>        -0.3401
      7 C5          0.9117   -0.3318   -0.7149 C.3       1 <0>         0.1201
      8 H2          0.6990   -0.6832    0.2947 H         1 <0>         0.0694
      9 C6         -0.1338    0.6636   -1.1260 C.2       1 <0>        -0.1650
     10 C7          0.0621    1.9653   -1.1450 C.2       1 <0>        -0.1312
     11 C8          1.3589    2.6196   -0.7665 C.3       1 <0>        -0.0721
     12 C9          2.2310    1.6422    0.0243 C.3       1 <0>         0.1278
     13 H3          1.7924    1.4734    1.0077 H         1 <0>         0.1162
     14 C10         2.2972    0.3169   -0.7447 C.3       1 <0>         0.1342
     15 H4          2.5919    0.5037   -1.7773 H         1 <0>         0.1196
     16 N1          3.2712   -0.5733   -0.1082 N.am      1 <0>        -0.7384
     17 C11         3.8584   -1.5522   -0.8248 C.2       1 <0>         0.5083
     18 O2          3.5804   -1.6962   -1.9965 O.2       1 <0>        -0.4983
     19 C12         4.8603   -2.4679   -0.1701 C.3       1 <0>        -0.1714
     20 C13         4.2145    2.3297    1.3119 C.cat     1 <0>         0.7382
     21 N2          3.6774    1.8051    2.4636 N.pl3     1 <0>        -0.8120
     22 N3          5.4151    2.9980    1.3556 N.pl3     1 <0>        -0.8139
     23 C14        -1.0510    2.8269   -1.5666 C.2       1 <0>         0.4790
     24 O3         -2.1148    2.3331   -1.8851 O.co2     1 <0>        -0.6187
     25 H5         -0.7843   -1.3910   -3.5810 H         1 <0>         0.0646
     26 H6         -1.7628   -2.7596   -4.1624 H         1 <0>         0.0533
     27 H7         -2.2234   -1.9067   -2.6695 H         1 <0>         0.0540
     28 H8          0.3157   -3.5533   -3.0676 H         1 <0>         0.0697
     29 H9         -1.1235   -4.0689   -2.1560 H         1 <0>         0.0718
     30 H10         1.6011   -3.9081   -0.8993 H         1 <0>         0.0621
     31 H11         1.1435   -2.9783    0.5478 H         1 <0>         0.0477
     32 H12         0.0936   -4.2924   -0.0345 H         1 <0>         0.0653
     33 H13        -1.1025    0.2905   -1.4238 H         1 <0>         0.1334
     34 H14         1.8866    2.9252   -1.6699 H         1 <0>         0.0925
     35 H15         1.1552    3.4984   -0.1547 H         1 <0>         0.1031
     36 H16         3.4935   -0.4581    0.8289 H         1 <0>         0.3851
     37 H17         4.9794   -2.1873    0.8765 H         1 <0>         0.0690
     38 H18         4.5069   -3.4971   -0.2323 H         1 <0>         0.0980
     39 H19         5.8194   -2.3815   -0.6808 H         1 <0>         0.0950
     40 H20         2.9249    1.1951    2.4139 H         1 <0>         0.4343
     41 H21         4.0509    2.0451    3.3260 H         1 <0>         0.4387
     42 H22         5.7941    3.3681    0.5430 H         1 <0>         0.4376
     43 H23         5.8833    3.0995    2.1991 H         1 <0>         0.4342
     44 N4          3.6183    2.2139    0.1190 N.pl3     1 <0>        -0.6657
     45 H24         4.1084    2.5154   -0.7313 H         1 <0>         0.4549
     46 O4         -0.8922    4.1652   -1.6001 O.co2     1 <0>        -0.7544
@<TRIPOS>BOND
     1    1    2 1
     2    1   25 1
     3    1   26 1
     4    1   27 1
     5    2    3 1
     6    2   28 1
     7    2   29 1
     8    3    4 1
     9    3    5 1
    10    3    6 1
    11    5   30 1
    12    5   31 1
    13    5   32 1
    14    6    7 1
    15    7    8 1
    16    7   14 1
    17    7    9 1
    18    9   10 2
    19    9   33 1
    20   10   11 1
    21   10   23 1
    22   11   12 1
    23   11   34 1
    24   11   35 1
    25   12   13 1
    26   12   14 1
    27   12   44 1
    28   14   15 1
    29   14   16 1
    30   16   17 am
    31   16   36 1
    32   17   18 2
    33   17   19 1
    34   19   37 1
    35   19   38 1
    36   19   39 1
    37   20   21 1
    38   20   22 1
    39   20   44 2
    40   21   40 1
    41   21   41 1
    42   22   42 1
    43   22   43 1
    44   23   24 2
    45   23   46 1
    46   44   45 1
@<TRIPOS>MOLECULE
ZINC04134497
   47    47     0     0     0
SMALL
USER_CHARGES

@<TRIPOS>ATOM
      1 C1         -1.5414    1.7829    0.1035 C.3       1 <0>        -0.1608
      2 C2         -1.5253    0.2536    0.0584 C.3       1 <0>        -0.1195
      3 C3         -0.3943   -0.2178   -0.8578 C.3       1 <0>         0.0789
      4 C4         -0.3538   -1.7472   -0.8725 C.3       1 <0>        -0.1480
      5 C5          0.8821   -2.2172   -1.6423 C.3       1 <0>        -0.1619
      6 O1         -0.6221    0.2655   -2.1831 O.3       1 <0>        -0.3507
      7 C6          0.5740    0.5275   -2.9198 C.3       1 <0>         0.1255
      8 H1          1.3560   -0.1590   -2.5953 H         1 <0>         0.0861
      9 C7          0.3059    0.3220   -4.4122 C.3       1 <0>         0.1205
     10 H2         -0.5886    0.8729   -4.7028 H         1 <0>         0.1372
     11 C8          1.5125    0.8460   -5.2004 C.3       1 <0>         0.0207
     12 H3          2.4278    0.4063   -4.8041 H         1 <0>         0.1478
     13 C9          1.5668    2.3678   -5.0508 C.3       1 <0>        -0.0784
     14 C10         1.4584    2.7488   -3.6030 C.2       1 <0>        -0.1486
     15 C11         1.0151    1.9397   -2.6666 C.2       1 <0>        -0.1224
     16 C12         0.9493    2.4617   -1.2544 C.3       1 <0>        -0.1109
     17 C13         1.8683    4.1045   -3.2113 C.2       1 <0>         0.4780
     18 O2          1.8493    4.4307   -2.0407 O.co2     1 <0>        -0.6060
     19 N1          0.1206   -1.1050   -4.6870 N.am      1 <0>        -0.7408
     20 C14        -0.9066   -1.5152   -5.4571 C.2       1 <0>         0.5075
     21 O3         -1.6775   -0.7029   -5.9227 O.2       1 <0>        -0.5278
     22 C15        -1.0972   -2.9831   -5.7398 C.3       1 <0>        -0.1801
     23 H4         -0.6215    2.1424    0.5647 H         1 <0>         0.0640
     24 H5         -1.6169    2.1755   -0.9106 H         1 <0>         0.0670
     25 H6         -2.3970    2.1202    0.6883 H         1 <0>         0.0526
     26 H7         -1.3661   -0.1378    1.0632 H         1 <0>         0.0755
     27 H8         -2.4789   -0.1086   -0.3257 H         1 <0>         0.0681
     28 H9          0.5564    0.1673   -0.4890 H         1 <0>         0.0787
     29 H10        -0.3076   -2.1193    0.1510 H         1 <0>         0.0764
     30 H11        -1.2516   -2.1298   -1.3580 H         1 <0>         0.0703
     31 H12         0.8995   -3.3067   -1.6712 H         1 <0>         0.0606
     32 H13         0.8465   -1.8273   -2.6596 H         1 <0>         0.0489
     33 H14         1.7806   -1.8526   -1.1446 H         1 <0>         0.0589
     34 H15         2.5107    2.7369   -5.4519 H         1 <0>         0.1108
     35 H16         0.7415    2.8150   -5.6049 H         1 <0>         0.0957
     36 H17         0.5208    1.6987   -0.6046 H         1 <0>         0.0519
     37 H18         1.9540    2.7088   -0.9113 H         1 <0>         0.0783
     38 H19         0.3257    3.3552   -1.2260 H         1 <0>         0.0864
     39 H20         2.1523    0.8260   -7.1571 H         1 <0>         0.4405
     40 H21         1.2512   -0.5054   -6.7313 H         1 <0>         0.4259
     41 H22         0.7372   -1.7547   -4.3146 H         1 <0>         0.4082
     42 H23        -1.2419   -3.5181   -4.8012 H         1 <0>         0.0969
     43 H24        -1.9725   -3.1202   -6.3748 H         1 <0>         0.1006
     44 H25        -0.2151   -3.3728   -6.2479 H         1 <0>         0.0916
     45 O4          2.2655    4.9864   -4.1503 O.co2     1 <0>        -0.7572
     46 N2          1.3467    0.5030   -6.6238 N.4       1 <0>        -0.6377
     47 H26         0.5010    0.9600   -6.9848 H         1 <0>         0.4408
@<TRIPOS>BOND
     1    1    2 1
     2    1   23 1
     3    1   24 1
     4    1   25 1
     5    2    3 1
     6    2   26 1
     7    2   27 1
     8    3    4 1
     9    3    6 1
    10    3   28 1
    11    4    5 1
    12    4   29 1
    13    4   30 1
    14    5   31 1
    15    5   32 1
    16    5   33 1
    17    6    7 1
    18    7    8 1
    19    7   15 1
    20    7    9 1
    21    9   10 1
    22    9   11 1
    23    9   19 1
    24   11   12 1
    25   11   13 1
    26   11   46 1
    27   13   14 1
    28   13   34 1
    29   13   35 1
    30   14   15 2
    31   14   17 1
    32   15   16 1
    33   16   36 1
    34   16   37 1
    35   16   38 1
    36   17   18 2
    37   17   45 1
    38   19   20 am
    39   19   41 1
    40   20   21 2
    41   20   22 1
    42   22   42 1
    43   22   43 1
    44   22   44 1
    45   39   46 1
    46   40   46 1
    47   46   47 1
@<TRIPOS>MOLECULE
ZINC04134498
   44    44     0     0     0
SMALL
USER_CHARGES

@<TRIPOS>ATOM
      1 C1         -2.7688    1.3698   -0.2334 C.3       1 <0>        -0.1619
      2 C2         -1.3013    0.9442   -0.3123 C.3       1 <0>        -0.1450
      3 C3         -0.6662    1.5341   -1.5731 C.3       1 <0>         0.0841
      4 C4          0.7632    1.0082   -1.7180 C.3       1 <0>        -0.1177
      5 C5          1.3761    1.5471   -3.0122 C.3       1 <0>        -0.1518
      6 O1         -0.6415    2.9593   -1.4718 O.3       1 <0>        -0.3327
      7 C6         -1.7494    3.6060   -2.1015 C.3       1 <0>         0.1037
      8 H1         -2.6420    2.9921   -1.9816 H         1 <0>         0.0921
      9 C7         -1.9798    4.9696   -1.4468 C.3       1 <0>         0.1359
     10 H2         -1.0400    5.5203   -1.4076 H         1 <0>         0.1317
     11 C8         -2.9985    5.7483   -2.2879 C.3       1 <0>         0.0211
     12 H3         -3.8805    5.1310   -2.4586 H         1 <0>         0.1550
     13 C9         -2.3524    6.1034   -3.6286 C.3       1 <0>        -0.0660
     14 C10        -1.7303    4.8825   -4.2416 C.2       1 <0>        -0.1909
     15 C11        -1.4596    3.7777   -3.5643 C.2       1 <0>         0.0535
     16 F1         -0.8903    2.7471   -4.2268 F         1 <0>        -0.1028
     17 C12        -1.4041    4.9156   -5.6683 C.2       1 <0>         0.4781
     18 O2         -0.8992    3.9452   -6.1993 O.co2     1 <0>        -0.6002
     19 N1         -2.5017    4.7824   -0.0908 N.am      1 <0>        -0.7533
     20 C13        -1.6526    4.5793    0.9360 C.2       1 <0>         0.5113
     21 O3         -0.4565    4.5515    0.7374 O.2       1 <0>        -0.4879
     22 C14        -2.1895    4.3868    2.3309 C.3       1 <0>        -0.1764
     23 H4         -3.3005    1.0057   -1.1125 H         1 <0>         0.0539
     24 H5         -3.2212    0.9496    0.6648 H         1 <0>         0.0578
     25 H6         -2.8301    2.4575   -0.1963 H         1 <0>         0.0551
     26 H7         -1.2400   -0.1435   -0.3494 H         1 <0>         0.0749
     27 H8         -0.7696    1.3083    0.5668 H         1 <0>         0.0714
     28 H9         -1.2510    1.2419   -2.4453 H         1 <0>         0.0685
     29 H10         1.3600    1.3392   -0.8681 H         1 <0>         0.0688
     30 H11         0.7482   -0.0812   -1.7492 H         1 <0>         0.0742
     31 H12         2.3656    1.1125   -3.1541 H         1 <0>         0.0520
     32 H13         0.7380    1.2807   -3.8548 H         1 <0>         0.0627
     33 H14         1.4613    2.6319   -2.9497 H         1 <0>         0.0583
     34 H15        -3.1124    6.4988   -4.3025 H         1 <0>         0.1199
     35 H16        -1.5821    6.8581   -3.4699 H         1 <0>         0.1015
     36 H17        -4.0564    7.5062   -2.1177 H         1 <0>         0.4443
     37 H18        -3.7419    6.7677   -0.6611 H         1 <0>         0.4295
     38 H19        -3.4583    4.8047    0.0681 H         1 <0>         0.3978
     39 H20        -2.8417    3.5137    2.3519 H         1 <0>         0.0914
     40 H21        -1.3600    4.2374    3.0221 H         1 <0>         0.0987
     41 H22        -2.7551    5.2701    2.6277 H         1 <0>         0.0885
     42 O4         -1.6636    6.0225   -6.3938 O.co2     1 <0>        -0.7531
     43 N2         -3.3628    6.9885   -1.5805 N.4       1 <0>        -0.6374
     44 H23        -2.5248    7.5706   -1.4663 H         1 <0>         0.4412
@<TRIPOS>BOND
     1    1    2 1
     2    1   23 1
     3    1   24 1
     4    1   25 1
     5    2    3 1
     6    2   26 1
     7    2   27 1
     8    3    4 1
     9    3    6 1
    10    3   28 1
    11    4    5 1
    12    4   29 1
    13    4   30 1
    14    5   31 1
    15    5   32 1
    16    5   33 1
    17    6    7 1
    18    7    8 1
    19    7   15 1
    20    7    9 1
    21    9   10 1
    22    9   11 1
    23    9   19 1
    24   11   12 1
    25   11   13 1
    26   11   43 1
    27   13   14 1
    28   13   34 1
    29   13   35 1
    30   14   15 2
    31   14   17 1
    32   15   16 1
    33   17   18 2
    34   17   42 1
    35   19   20 am
    36   19   38 1
    37   20   21 2
    38   20   22 1
    39   22   39 1
    40   22   40 1
    41   22   41 1
    42   36   43 1
    43   37   43 1
    44   43   44 1
@<TRIPOS>MOLECULE
ZINC04134499
   39    39     0     0     0
SMALL
USER_CHARGES

@<TRIPOS>ATOM
      1 C1         -2.5107    0.8159   -0.0506 C.3       1 <0>        -0.1703
      2 C2         -1.2122    1.5780    0.0139 C.2       1 <0>         0.5077
      3 O1         -1.2228    2.7850    0.1320 O.2       1 <0>        -0.5625
      4 N1         -0.0392    0.9184   -0.0596 N.am      1 <0>        -0.7046
      5 C3          1.2230    1.6599   -0.0029 C.3       1 <0>         0.1099
      6 H1          1.1018    2.6236   -0.4975 H         1 <0>         0.1322
      7 C4          1.6221    1.8801    1.4595 C.3       1 <0>         0.0946
      8 H2          0.8203    2.4023    1.9816 H         1 <0>         0.0519
      9 C5          1.8641    0.5202    2.1216 C.3       1 <0>        -0.1582
     10 C6          2.9361   -0.2382    1.3347 C.3       1 <0>        -0.4793
     11 H3          3.8732    0.3176    1.3685 H         1 <0>         0.0414
     12 O2          2.5159   -0.3817   -0.0236 O.3       1 <0>        -0.3243
     13 C7          2.3198    0.8575   -0.7077 C.3       1 <0>         0.0418
     14 H4          2.0216    0.6609   -1.7375 H         1 <0>         0.0911
     15 C8          3.6237    1.6578   -0.6980 C.3       1 <0>         0.0345
     16 H5          3.8771    1.9272    0.3273 H         1 <0>         0.1130
     17 C9          3.4479    2.9293   -1.5308 C.3       1 <0>         0.1257
     18 H6          3.0849    2.6656   -2.5242 H         1 <0>         0.0980
     19 C10         4.7927    3.6485   -1.6535 C.3       1 <0>         0.0523
     20 O3          4.6543    4.7716   -2.5262 O.3       1 <0>        -0.5696
     21 O4          2.5037    3.7906   -0.8916 O.3       1 <0>        -0.5438
     22 O5          4.6736    0.8647   -1.2554 O.3       1 <0>        -0.5734
     23 P1          3.1803   -1.8870    2.0730 P.3       1 <0>         2.2098
     24 O6          1.9077   -2.6412    2.0275 O.2       1 <0>        -1.1450
     25 O7          2.8187    2.6592    1.5164 O.3       1 <0>        -0.5655
     26 H7         -2.3022   -0.2488   -0.1563 H         1 <0>         0.0803
     27 H8         -3.0777    0.9860    0.8646 H         1 <0>         0.0908
     28 H9         -3.0913    1.1591   -0.9069 H         1 <0>         0.0882
     29 H10        -0.0308   -0.0470   -0.1540 H         1 <0>         0.4125
     30 H11         0.9379   -0.0545    2.1224 H         1 <0>         0.0808
     31 H12         2.2016    0.6684    3.1474 H         1 <0>         0.0727
     32 H13         5.1131    3.9904   -0.6694 H         1 <0>         0.0454
     33 H14         5.5360    2.9624   -2.0595 H         1 <0>         0.0657
     34 H15         5.4700    5.2758   -2.6509 H         1 <0>         0.3697
     35 H16         2.7360    4.0228    0.0179 H         1 <0>         0.3801
     36 H17         4.7906    0.0074   -0.8236 H         1 <0>         0.4007
     37 H18         3.1715    2.7736    2.4094 H         1 <0>         0.3773
     38 O8          4.3068   -2.6847    1.2443 O.3       1 <0>        -1.1844
     39 O9          3.6537   -1.7250    3.6033 O.3       1 <0>        -1.1871
@<TRIPOS>BOND
     1    1    2 1
     2    1   26 1
     3    1   27 1
     4    1   28 1
     5    2    3 2
     6    2    4 am
     7    4    5 1
     8    4   29 1
     9    5    6 1
    10    5   13 1
    11    5    7 1
    12    7    8 1
    13    7    9 1
    14    7   25 1
    15    9   10 1
    16    9   30 1
    17    9   31 1
    18   10   11 1
    19   10   12 1
    20   10   23 1
    21   12   13 1
    22   13   14 1
    23   13   15 1
    24   15   16 1
    25   15   17 1
    26   15   22 1
    27   17   18 1
    28   17   19 1
    29   17   21 1
    30   19   20 1
    31   19   32 1
    32   19   33 1
    33   20   34 1
    34   21   35 1
    35   22   36 1
    36   23   24 2
    37   23   38 1
    38   23   39 1
    39   25   37 1
@<TRIPOS>MOLECULE
ZINC04134500
   43    43     0     0     0
SMALL
USER_CHARGES

@<TRIPOS>ATOM
      1 C1         -0.6853    1.5429   -0.4710 C.3       1 <0>        -0.1753
      2 C2         -1.3659    1.8940    0.8269 C.2       1 <0>         0.5176
      3 O1         -2.5525    1.6849    0.9654 O.2       1 <0>        -0.5430
      4 N1         -0.6560    2.4404    1.8339 N.am      1 <0>        -0.7222
      5 C3         -1.3177    2.7818    3.0956 C.3       1 <0>         0.1053
      6 H1         -2.3366    3.1147    2.8979 H         1 <0>         0.1228
      7 C4         -1.3429    1.5555    4.0140 C.3       1 <0>         0.1798
      8 H2         -0.3557    1.0937    4.0310 H         1 <0>         0.1073
      9 C5         -1.7220    1.9803    5.4067 C.2       1 <0>        -0.3427
     10 C6         -1.6508    3.2416    5.8058 C.2       1 <0>         0.1382
     11 O2         -1.2410    4.2497    4.9982 O.3       1 <0>        -0.2527
     12 C7         -0.5370    3.8970    3.8042 C.3       1 <0>         0.0500
     13 H3          0.4619    3.5420    4.0579 H         1 <0>         0.0884
     14 C8         -0.4338    5.1171    2.8869 C.3       1 <0>         0.0928
     15 H4          0.1618    4.8632    2.0100 H         1 <0>         0.1196
     16 C9          0.2349    6.2676    3.6419 C.3       1 <0>         0.0742
     17 H5          1.2639    5.9972    3.8789 H         1 <0>         0.1099
     18 C10         0.2261    7.5241    2.7687 C.3       1 <0>         0.0501
     19 O3          0.9521    8.5652    3.4250 O.3       1 <0>        -0.5619
     20 O4         -0.4811    6.5233    4.8518 O.3       1 <0>        -0.5094
     21 O5         -1.7428    5.5152    2.4746 O.3       1 <0>        -0.5502
     22 C11        -2.0352    3.5632    7.1914 C.2       1 <0>         0.4891
     23 O6         -2.4067    2.6805    7.9393 O.co2     1 <0>        -0.6059
     24 C12        -2.0780   -0.6683    3.2529 C.cat     1 <0>         0.7366
     25 N2         -0.8527   -1.2055    3.5691 N.pl3     1 <0>        -0.8165
     26 N3         -3.0412   -1.4527    2.6638 N.pl3     1 <0>        -0.8153
     27 H6         -0.3134    0.5195   -0.4210 H         1 <0>         0.0920
     28 H7          0.1483    2.2245   -0.6400 H         1 <0>         0.0844
     29 H8         -1.3984    1.6307   -1.2906 H         1 <0>         0.0984
     30 H9          0.2930    2.6076    1.7231 H         1 <0>         0.4050
     31 H10        -2.0641    1.2311    6.1054 H         1 <0>         0.1482
     32 H11         0.6944    7.3032    1.8096 H         1 <0>         0.0488
     33 H12        -0.8025    7.8457    2.6054 H         1 <0>         0.0552
     34 H13         0.9878    9.3937    2.9275 H         1 <0>         0.3798
     35 H14        -1.4062    6.7703    4.7167 H         1 <0>         0.3717
     36 H15        -2.3290    5.7561    3.2049 H         1 <0>         0.3871
     37 H16        -0.2540   -0.7301    4.1662 H         1 <0>         0.4360
     38 H17        -0.5867   -2.0602    3.1951 H         1 <0>         0.4340
     39 H18        -3.9057   -1.0736    2.4407 H         1 <0>         0.4368
     40 H19        -2.8562   -2.3853    2.4712 H         1 <0>         0.4307
     41 O7         -1.9747    4.8364    7.6294 O.co2     1 <0>        -0.7019
     42 N4         -2.3924    0.6090    3.5010 N.pl3     1 <0>        -0.6473
     43 H20        -3.3503    0.9423    3.3410 H         1 <0>         0.4548
@<TRIPOS>BOND
     1    1    2 1
     2    1   27 1
     3    1   28 1
     4    1   29 1
     5    2    3 2
     6    2    4 am
     7    4    5 1
     8    4   30 1
     9    5    6 1
    10    5   12 1
    11    5    7 1
    12    7    8 1
    13    7    9 1
    14    7   42 1
    15    9   10 2
    16    9   31 1
    17   10   11 1
    18   10   22 1
    19   11   12 1
    20   12   13 1
    21   12   14 1
    22   14   15 1
    23   14   16 1
    24   14   21 1
    25   16   17 1
    26   16   18 1
    27   16   20 1
    28   18   19 1
    29   18   32 1
    30   18   33 1
    31   19   34 1
    32   20   35 1
    33   21   36 1
    34   22   23 2
    35   22   41 1
    36   24   25 1
    37   24   26 1
    38   24   42 2
    39   25   37 1
    40   25   38 1
    41   26   39 1
    42   26   40 1
    43   42   43 1
@<TRIPOS>MOLECULE
ZINC04134501
   36    36     0     0     0
SMALL
USER_CHARGES

@<TRIPOS>ATOM
      1 C1          4.4811    4.9477   -0.7380 C.3       1 <0>        -0.1696
      2 C2          3.2556    4.1212   -1.0315 C.2       1 <0>         0.5093
      3 O1          3.1790    3.4973   -2.0687 O.2       1 <0>        -0.5177
      4 N1          2.2447    4.0753   -0.1413 N.am      1 <0>        -0.7223
      5 C3          1.0534    3.2718   -0.4266 C.3       1 <0>         0.1291
      6 H1          0.8312    3.3098   -1.4930 H         1 <0>         0.1123
      7 C4          1.2952    1.8199   -0.0005 C.3       1 <0>         0.1421
      8 H2          1.7299    1.8020    0.9988 H         1 <0>         0.0541
      9 C5         -0.0126    1.0758    0.0080 C.2       1 <0>        -0.3034
     10 C6         -1.1814    1.6994    0.0170 C.2       1 <0>         0.0826
     11 O2         -1.2982    3.0494    0.0223 O.3       1 <0>        -0.2819
     12 C7         -0.1407    3.8141    0.3706 C.3       1 <0>         0.0514
     13 H3          0.0559    3.7172    1.4383 H         1 <0>         0.0846
     14 C8         -0.3692    5.2857    0.0199 C.3       1 <0>         0.1010
     15 H4          0.4866    5.8748    0.3496 H         1 <0>         0.1103
     16 C9         -1.6336    5.7866    0.7208 C.3       1 <0>         0.0763
     17 H5         -2.4894    5.1975    0.3911 H         1 <0>         0.1260
     18 C10        -1.8621    7.2583    0.3701 C.3       1 <0>         0.0496
     19 O3         -3.1030    7.6940    0.9289 O.3       1 <0>        -0.5613
     20 O4         -1.4793    5.6523    2.1350 O.3       1 <0>        -0.5367
     21 O5         -0.5235    5.4200   -1.3944 O.3       1 <0>        -0.5492
     22 C11        -2.4110    0.8876    0.0272 C.2       1 <0>         0.5001
     23 O6         -2.3383   -0.3254    0.0272 O.co2     1 <0>        -0.6129
     24 O7          2.1922    1.1961   -0.9215 O.3       1 <0>        -0.5410
     25 H6          5.2143    4.3363   -0.2120 H         1 <0>         0.0899
     26 H7          4.9107    5.3055   -1.6738 H         1 <0>         0.0904
     27 H8          4.2047    5.7991   -0.1161 H         1 <0>         0.0753
     28 H9          2.3060    4.5743    0.6883 H         1 <0>         0.3935
     29 H10         0.0021   -0.0041    0.0020 H         1 <0>         0.1382
     30 H11        -1.0492    7.8593    0.7776 H         1 <0>         0.0438
     31 H12        -1.8912    7.3733   -0.7134 H         1 <0>         0.0637
     32 H13        -3.3133    8.6199    0.7458 H         1 <0>         0.3754
     33 H14        -0.7349    6.1512    2.4986 H         1 <0>         0.3638
     34 H15        -1.2679    4.9211   -1.7579 H         1 <0>         0.3915
     35 H16         2.3906    0.2729   -0.7133 H         1 <0>         0.3723
     36 O8         -3.6165    1.4904    0.0365 O.co2     1 <0>        -0.7305
@<TRIPOS>BOND
     1    1    2 1
     2    1   25 1
     3    1   26 1
     4    1   27 1
     5    2    3 2
     6    2    4 am
     7    4    5 1
     8    4   28 1
     9    5    6 1
    10    5   12 1
    11    5    7 1
    12    7    8 1
    13    7    9 1
    14    7   24 1
    15    9   10 2
    16    9   29 1
    17   10   11 1
    18   10   22 1
    19   11   12 1
    20   12   13 1
    21   12   14 1
    22   14   15 1
    23   14   16 1
    24   14   21 1
    25   16   17 1
    26   16   18 1
    27   16   20 1
    28   18   19 1
    29   18   30 1
    30   18   31 1
    31   19   32 1
    32   20   33 1
    33   21   34 1
    34   22   23 2
    35   22   36 1
    36   24   35 1
@<TRIPOS>MOLECULE
ZINC04646290
   50    50     0     0     0
SMALL
USER_CHARGES

@<TRIPOS>ATOM
      1 C1          8.4900    9.3568    1.6186 C.3       1 <0>        -0.1542
      2 C2          7.8109    8.1352    2.2412 C.3       1 <0>        -0.1261
      3 C3          6.9646    7.4269    1.1815 C.3       1 <0>        -0.1209
      4 C4          6.2856    6.2053    1.8040 C.3       1 <0>        -0.1191
      5 C5          5.4393    5.4970    0.7444 C.3       1 <0>        -0.1170
      6 C6          4.7602    4.2754    1.3669 C.3       1 <0>        -0.1151
      7 C7          3.9139    3.5670    0.3072 C.3       1 <0>         0.0609
      8 O1          3.2796    2.4261    0.8887 O.3       1 <0>        -0.3516
      9 C8          2.4606    1.6895   -0.0216 C.3       1 <0>         0.1220
     10 H1          2.8660    1.7828   -1.0291 H         1 <0>         0.0762
     11 C9          1.0659    2.2435    0.0039 C.2       1 <0>        -0.1603
     12 C10        -0.0183    1.4967    0.0103 C.2       1 <0>        -0.1325
     13 C11         0.0021   -0.0041    0.0020 C.3       1 <0>        -0.0823
     14 C12         1.3775   -0.5097   -0.4380 C.3       1 <0>         0.0255
     15 H2          1.5241   -0.2974   -1.4970 H         1 <0>         0.1526
     16 C13         2.4491    0.2147    0.3859 C.3       1 <0>         0.1277
     17 H3          2.2147    0.1299    1.4470 H         1 <0>         0.1267
     18 N1          3.7603   -0.3830    0.1222 N.am      1 <0>        -0.7531
     19 C14         4.7403   -0.2912    1.0430 C.2       1 <0>         0.5096
     20 O2          4.5365    0.2863    2.0898 O.2       1 <0>        -0.4945
     21 C15         6.0891   -0.9061    0.7717 C.3       1 <0>        -0.1724
     22 C16        -1.3237    2.1714    0.0200 C.2       1 <0>         0.4781
     23 O3         -1.3802    3.3855    0.0269 O.co2     1 <0>        -0.6153
     24 H4          7.7306   10.0422    1.2423 H         1 <0>         0.0540
     25 H5          9.0929    9.8614    2.3735 H         1 <0>         0.0536
     26 H6          9.1303    9.0370    0.7965 H         1 <0>         0.0527
     27 H7          7.1707    8.4551    3.0633 H         1 <0>         0.0614
     28 H8          8.5703    7.4498    2.6175 H         1 <0>         0.0600
     29 H9          7.6049    7.1070    0.3594 H         1 <0>         0.0601
     30 H10         6.2053    8.1123    0.8052 H         1 <0>         0.0622
     31 H11         5.6453    6.5252    2.6262 H         1 <0>         0.0640
     32 H12         7.0449    5.5199    2.1804 H         1 <0>         0.0614
     33 H13         6.0795    5.1771   -0.0778 H         1 <0>         0.0608
     34 H14         4.6799    6.1824    0.3680 H         1 <0>         0.0654
     35 H15         4.1199    4.5952    2.1890 H         1 <0>         0.0730
     36 H16         5.5196    3.5900    1.7433 H         1 <0>         0.0686
     37 H17         4.5541    3.2472   -0.5149 H         1 <0>         0.0439
     38 H18         3.1545    4.2525   -0.0691 H         1 <0>         0.0549
     39 H19         0.9447    3.3166    0.0179 H         1 <0>         0.1358
     40 H20        -0.2153   -0.3739    1.0040 H         1 <0>         0.0984
     41 H21        -0.7546   -0.3719   -0.6909 H         1 <0>         0.1150
     42 H22         3.9233   -0.8449   -0.7150 H         1 <0>         0.3961
     43 H23         6.0826   -1.3773   -0.2111 H         1 <0>         0.0749
     44 H24         6.8540   -0.1300    0.7975 H         1 <0>         0.1003
     45 H25         6.3063   -1.6558    1.5326 H         1 <0>         0.0986
     46 H26         0.7620   -2.4533   -0.7244 H         1 <0>         0.4427
     47 H27         2.3912   -2.3016   -0.4267 H         1 <0>         0.4285
     48 N2          1.4650   -1.9577   -0.1787 N.4       1 <0>        -0.6387
     49 H28         1.2988   -2.1324    0.8194 H         1 <0>         0.4401
     50 O4         -2.4585    1.4438    0.0213 O.co2     1 <0>        -0.7524
@<TRIPOS>BOND
     1    1    2 1
     2    1   24 1
     3    1   25 1
     4    1   26 1
     5    2    3 1
     6    2   27 1
     7    2   28 1
     8    3    4 1
     9    3   29 1
    10    3   30 1
    11    4    5 1
    12    4   31 1
    13    4   32 1
    14    5    6 1
    15    5   33 1
    16    5   34 1
    17    6    7 1
    18    6   35 1
    19    6   36 1
    20    7    8 1
    21    7   37 1
    22    7   38 1
    23    8    9 1
    24    9   10 1
    25    9   16 1
    26    9   11 1
    27   11   12 2
    28   11   39 1
    29   12   13 1
    30   12   22 1
    31   13   14 1
    32   13   40 1
    33   13   41 1
    34   14   15 1
    35   14   16 1
    36   14   48 1
    37   16   17 1
    38   16   18 1
    39   18   19 am
    40   18   42 1
    41   19   20 2
    42   19   21 1
    43   21   43 1
    44   21   44 1
    45   21   45 1
    46   22   23 2
    47   22   50 1
    48   46   48 1
    49   47   48 1
    50   48   49 1
@<TRIPOS>MOLECULE
ZINC04646291
   53    53     0     0     0
SMALL
USER_CHARGES

@<TRIPOS>ATOM
      1 C1          9.3363   10.0652    2.6783 C.3       1 <0>        -0.1543
      2 C2          8.4900    9.3568    1.6186 C.3       1 <0>        -0.1260
      3 C3          7.8109    8.1352    2.2412 C.3       1 <0>        -0.1214
      4 C4          6.9646    7.4269    1.1815 C.3       1 <0>        -0.1208
      5 C5          6.2856    6.2053    1.8040 C.3       1 <0>        -0.1187
      6 C6          5.4393    5.4970    0.7444 C.3       1 <0>        -0.1169
      7 C7          4.7602    4.2754    1.3669 C.3       1 <0>        -0.1152
      8 C8          3.9139    3.5670    0.3072 C.3       1 <0>         0.0609
      9 O1          3.2796    2.4261    0.8887 O.3       1 <0>        -0.3516
     10 C9          2.4606    1.6895   -0.0216 C.3       1 <0>         0.1220
     11 H1          2.8660    1.7828   -1.0291 H         1 <0>         0.0762
     12 C10         1.0659    2.2435    0.0039 C.2       1 <0>        -0.1603
     13 C11        -0.0183    1.4967    0.0103 C.2       1 <0>        -0.1325
     14 C12         0.0021   -0.0041    0.0020 C.3       1 <0>        -0.0824
     15 C13         1.3775   -0.5097   -0.4380 C.3       1 <0>         0.0255
     16 H2          1.5241   -0.2974   -1.4970 H         1 <0>         0.1527
     17 C14         2.4491    0.2147    0.3859 C.3       1 <0>         0.1280
     18 H3          2.2147    0.1299    1.4470 H         1 <0>         0.1267
     19 N1          3.7603   -0.3830    0.1222 N.am      1 <0>        -0.7537
     20 C15         4.7403   -0.2912    1.0430 C.2       1 <0>         0.5095
     21 O2          4.5365    0.2863    2.0898 O.2       1 <0>        -0.4938
     22 C16         6.0891   -0.9061    0.7717 C.3       1 <0>        -0.1736
     23 C17        -1.3237    2.1714    0.0200 C.2       1 <0>         0.4780
     24 O3         -1.3802    3.3855    0.0269 O.co2     1 <0>        -0.6153
     25 H4          9.8201   10.9354    2.2348 H         1 <0>         0.0534
     26 H5          8.6960   10.3850    3.5004 H         1 <0>         0.0538
     27 H6         10.0957    9.3797    3.0546 H         1 <0>         0.0529
     28 H7          9.1303    9.0370    0.7965 H         1 <0>         0.0597
     29 H8          7.7306   10.0422    1.2423 H         1 <0>         0.0609
     30 H9          7.1707    8.4551    3.0633 H         1 <0>         0.0617
     31 H10         8.5703    7.4498    2.6175 H         1 <0>         0.0603
     32 H11         7.6049    7.1070    0.3594 H         1 <0>         0.0600
     33 H12         6.2053    8.1123    0.8052 H         1 <0>         0.0622
     34 H13         5.6453    6.5252    2.6262 H         1 <0>         0.0639
     35 H14         7.0449    5.5199    2.1804 H         1 <0>         0.0613
     36 H15         6.0795    5.1771   -0.0778 H         1 <0>         0.0607
     37 H16         4.6799    6.1824    0.3680 H         1 <0>         0.0654
     38 H17         4.1199    4.5952    2.1890 H         1 <0>         0.0730
     39 H18         5.5196    3.5900    1.7433 H         1 <0>         0.0687
     40 H19         4.5541    3.2472   -0.5149 H         1 <0>         0.0438
     41 H20         3.1545    4.2525   -0.0691 H         1 <0>         0.0549
     42 H21         0.9447    3.3166    0.0179 H         1 <0>         0.1358
     43 H22        -0.2153   -0.3739    1.0040 H         1 <0>         0.0984
     44 H23        -0.7546   -0.3719   -0.6909 H         1 <0>         0.1150
     45 H24         3.9233   -0.8449   -0.7150 H         1 <0>         0.3962
     46 H25         6.7305   -0.1735    0.2819 H         1 <0>         0.0981
     47 H26         6.5435   -1.2151    1.7131 H         1 <0>         0.0983
     48 H27         5.9689   -1.7745    0.1240 H         1 <0>         0.0784
     49 H28         0.7620   -2.4533   -0.7244 H         1 <0>         0.4427
     50 H29         2.3912   -2.3016   -0.4267 H         1 <0>         0.4285
     51 N2          1.4650   -1.9577   -0.1787 N.4       1 <0>        -0.6387
     52 H30         1.2988   -2.1324    0.8194 H         1 <0>         0.4401
     53 O4         -2.4585    1.4438    0.0213 O.co2     1 <0>        -0.7524
@<TRIPOS>BOND
     1    1    2 1
     2    1   25 1
     3    1   26 1
     4    1   27 1
     5    2    3 1
     6    2   28 1
     7    2   29 1
     8    3    4 1
     9    3   30 1
    10    3   31 1
    11    4    5 1
    12    4   32 1
    13    4   33 1
    14    5    6 1
    15    5   34 1
    16    5   35 1
    17    6    7 1
    18    6   36 1
    19    6   37 1
    20    7    8 1
    21    7   38 1
    22    7   39 1
    23    8    9 1
    24    8   40 1
    25    8   41 1
    26    9   10 1
    27   10   11 1
    28   10   17 1
    29   10   12 1
    30   12   13 2
    31   12   42 1
    32   13   14 1
    33   13   23 1
    34   14   15 1
    35   14   43 1
    36   14   44 1
    37   15   16 1
    38   15   17 1
    39   15   51 1
    40   17   18 1
    41   17   19 1
    42   19   20 am
    43   19   45 1
    44   20   21 2
    45   20   22 1
    46   22   46 1
    47   22   47 1
    48   22   48 1
    49   23   24 2
    50   23   53 1
    51   49   51 1
    52   50   51 1
    53   51   52 1
@<TRIPOS>MOLECULE
ZINC04646292
   56    56     0     0     0
SMALL
USER_CHARGES

@<TRIPOS>ATOM
      1 C1         10.0154   11.2867    2.0557 C.3       1 <0>        -0.1542
      2 C2          9.3363   10.0652    2.6783 C.3       1 <0>        -0.1262
      3 C3          8.4900    9.3568    1.6186 C.3       1 <0>        -0.1212
      4 C4          7.8109    8.1352    2.2412 C.3       1 <0>        -0.1212
      5 C5          6.9646    7.4269    1.1815 C.3       1 <0>        -0.1203
      6 C6          6.2856    6.2053    1.8040 C.3       1 <0>        -0.1186
      7 C7          5.4393    5.4970    0.7444 C.3       1 <0>        -0.1169
      8 C8          4.7602    4.2754    1.3669 C.3       1 <0>        -0.1151
      9 C9          3.9139    3.5670    0.3072 C.3       1 <0>         0.0610
     10 O1          3.2796    2.4261    0.8887 O.3       1 <0>        -0.3516
     11 C10         2.4606    1.6895   -0.0216 C.3       1 <0>         0.1220
     12 H1          2.8660    1.7828   -1.0291 H         1 <0>         0.0762
     13 C11         1.0659    2.2435    0.0039 C.2       1 <0>        -0.1603
     14 C12        -0.0183    1.4967    0.0103 C.2       1 <0>        -0.1325
     15 C13         0.0021   -0.0041    0.0020 C.3       1 <0>        -0.0824
     16 C14         1.3775   -0.5097   -0.4380 C.3       1 <0>         0.0255
     17 H2          1.5241   -0.2974   -1.4970 H         1 <0>         0.1527
     18 C15         2.4491    0.2147    0.3859 C.3       1 <0>         0.1282
     19 H3          2.2147    0.1299    1.4470 H         1 <0>         0.1266
     20 N1          3.7603   -0.3830    0.1222 N.am      1 <0>        -0.7543
     21 C16         4.7403   -0.2912    1.0430 C.2       1 <0>         0.5093
     22 O2          4.5365    0.2863    2.0898 O.2       1 <0>        -0.4931
     23 C17         6.0891   -0.9061    0.7717 C.3       1 <0>        -0.1756
     24 C18        -1.3237    2.1714    0.0200 C.2       1 <0>         0.4781
     25 O3         -1.3802    3.3855    0.0269 O.co2     1 <0>        -0.6153
     26 H4         10.6556   10.9669    1.2336 H         1 <0>         0.0529
     27 H5          9.2560   11.9721    1.6794 H         1 <0>         0.0536
     28 H6         10.6183   11.7914    2.8107 H         1 <0>         0.0534
     29 H7          8.6960   10.3850    3.5004 H         1 <0>         0.0607
     30 H8         10.0957    9.3797    3.0546 H         1 <0>         0.0599
     31 H9          9.1303    9.0370    0.7965 H         1 <0>         0.0600
     32 H10         7.7306   10.0422    1.2423 H         1 <0>         0.0611
     33 H11         7.1707    8.4551    3.0633 H         1 <0>         0.0616
     34 H12         8.5703    7.4498    2.6175 H         1 <0>         0.0603
     35 H13         7.6049    7.1070    0.3594 H         1 <0>         0.0599
     36 H14         6.2053    8.1123    0.8052 H         1 <0>         0.0621
     37 H15         5.6453    6.5252    2.6262 H         1 <0>         0.0639
     38 H16         7.0449    5.5199    2.1804 H         1 <0>         0.0613
     39 H17         6.0795    5.1771   -0.0778 H         1 <0>         0.0607
     40 H18         4.6799    6.1824    0.3680 H         1 <0>         0.0653
     41 H19         4.1199    4.5952    2.1890 H         1 <0>         0.0730
     42 H20         5.5196    3.5900    1.7433 H         1 <0>         0.0687
     43 H21         4.5541    3.2472   -0.5149 H         1 <0>         0.0438
     44 H22         3.1545    4.2525   -0.0691 H         1 <0>         0.0548
     45 H23         0.9447    3.3166    0.0179 H         1 <0>         0.1358
     46 H24        -0.2153   -0.3739    1.0040 H         1 <0>         0.0983
     47 H25        -0.7546   -0.3719   -0.6909 H         1 <0>         0.1150
     48 H26         3.9233   -0.8449   -0.7150 H         1 <0>         0.3963
     49 H27         6.5223   -0.4530   -0.1199 H         1 <0>         0.0907
     50 H28         6.7460   -0.7314    1.6238 H         1 <0>         0.0980
     51 H29         5.9746   -1.9787    0.6152 H         1 <0>         0.0877
     52 H30         0.7620   -2.4533   -0.7244 H         1 <0>         0.4427
     53 H31         2.3912   -2.3016   -0.4267 H         1 <0>         0.4284
     54 N2          1.4650   -1.9577   -0.1787 N.4       1 <0>        -0.6387
     55 H32         1.2988   -2.1324    0.8194 H         1 <0>         0.4401
     56 O4         -2.4585    1.4438    0.0213 O.co2     1 <0>        -0.7524
@<TRIPOS>BOND
     1    1    2 1
     2    1   26 1
     3    1   27 1
     4    1   28 1
     5    2    3 1
     6    2   29 1
     7    2   30 1
     8    3    4 1
     9    3   31 1
    10    3   32 1
    11    4    5 1
    12    4   33 1
    13    4   34 1
    14    5    6 1
    15    5   35 1
    16    5   36 1
    17    6    7 1
    18    6   37 1
    19    6   38 1
    20    7    8 1
    21    7   39 1
    22    7   40 1
    23    8    9 1
    24    8   41 1
    25    8   42 1
    26    9   10 1
    27    9   43 1
    28    9   44 1
    29   10   11 1
    30   11   12 1
    31   11   18 1
    32   11   13 1
    33   13   14 2
    34   13   45 1
    35   14   15 1
    36   14   24 1
    37   15   16 1
    38   15   46 1
    39   15   47 1
    40   16   17 1
    41   16   18 1
    42   16   54 1
    43   18   19 1
    44   18   20 1
    45   20   21 am
    46   20   48 1
    47   21   22 2
    48   21   23 1
    49   23   49 1
    50   23   50 1
    51   23   51 1
    52   24   25 2
    53   24   56 1
    54   52   54 1
    55   53   54 1
    56   54   55 1
@<TRIPOS>MOLECULE
ZINC04646293
   59    59     0     0     0
SMALL
USER_CHARGES

@<TRIPOS>ATOM
      1 C1         10.8617   11.9951    3.1154 C.3       1 <0>        -0.1543
      2 C2         10.0154   11.2867    2.0557 C.3       1 <0>        -0.1261
      3 C3          9.3363   10.0652    2.6783 C.3       1 <0>        -0.1214
      4 C4          8.4900    9.3568    1.6186 C.3       1 <0>        -0.1211
      5 C5          7.8109    8.1352    2.2412 C.3       1 <0>        -0.1208
      6 C6          6.9646    7.4269    1.1815 C.3       1 <0>        -0.1203
      7 C7          6.2856    6.2053    1.8040 C.3       1 <0>        -0.1186
      8 C8          5.4393    5.4970    0.7444 C.3       1 <0>        -0.1169
      9 C9          4.7602    4.2754    1.3669 C.3       1 <0>        -0.1151
     10 C10         3.9139    3.5670    0.3072 C.3       1 <0>         0.0609
     11 O1          3.2796    2.4261    0.8887 O.3       1 <0>        -0.3516
     12 C11         2.4606    1.6895   -0.0216 C.3       1 <0>         0.1220
     13 H1          2.8660    1.7828   -1.0291 H         1 <0>         0.0761
     14 C12         1.0659    2.2435    0.0039 C.2       1 <0>        -0.1603
     15 C13        -0.0183    1.4967    0.0103 C.2       1 <0>        -0.1324
     16 C14         0.0021   -0.0041    0.0020 C.3       1 <0>        -0.0824
     17 C15         1.3775   -0.5097   -0.4380 C.3       1 <0>         0.0255
     18 H2          1.5241   -0.2974   -1.4970 H         1 <0>         0.1527
     19 C16         2.4491    0.2147    0.3859 C.3       1 <0>         0.1280
     20 H3          2.2147    0.1299    1.4470 H         1 <0>         0.1267
     21 N1          3.7603   -0.3830    0.1222 N.am      1 <0>        -0.7537
     22 C17         4.7403   -0.2912    1.0430 C.2       1 <0>         0.5095
     23 O2          4.5365    0.2863    2.0898 O.2       1 <0>        -0.4938
     24 C18         6.0891   -0.9061    0.7717 C.3       1 <0>        -0.1736
     25 C19        -1.3237    2.1714    0.0200 C.2       1 <0>         0.4780
     26 O3         -1.3802    3.3855    0.0269 O.co2     1 <0>        -0.6153
     27 H4         11.3454   12.8653    2.6719 H         1 <0>         0.0534
     28 H5         10.2214   12.3149    3.9375 H         1 <0>         0.0536
     29 H6         11.6210   11.3096    3.4917 H         1 <0>         0.0530
     30 H7         10.6556   10.9669    1.2336 H         1 <0>         0.0599
     31 H8          9.2560   11.9721    1.6794 H         1 <0>         0.0606
     32 H9          8.6960   10.3850    3.5004 H         1 <0>         0.0610
     33 H10        10.0957    9.3797    3.0546 H         1 <0>         0.0602
     34 H11         9.1303    9.0370    0.7965 H         1 <0>         0.0600
     35 H12         7.7306   10.0422    1.2423 H         1 <0>         0.0611
     36 H13         7.1707    8.4551    3.0633 H         1 <0>         0.0616
     37 H14         8.5703    7.4498    2.6175 H         1 <0>         0.0602
     38 H15         7.6049    7.1070    0.3594 H         1 <0>         0.0599
     39 H16         6.2053    8.1123    0.8052 H         1 <0>         0.0620
     40 H17         5.6453    6.5252    2.6262 H         1 <0>         0.0639
     41 H18         7.0449    5.5199    2.1804 H         1 <0>         0.0613
     42 H19         6.0795    5.1771   -0.0778 H         1 <0>         0.0607
     43 H20         4.6799    6.1824    0.3680 H         1 <0>         0.0653
     44 H21         4.1199    4.5952    2.1890 H         1 <0>         0.0730
     45 H22         5.5196    3.5900    1.7433 H         1 <0>         0.0686
     46 H23         4.5541    3.2472   -0.5149 H         1 <0>         0.0438
     47 H24         3.1545    4.2525   -0.0691 H         1 <0>         0.0549
     48 H25         0.9447    3.3166    0.0179 H         1 <0>         0.1358
     49 H26        -0.2153   -0.3739    1.0040 H         1 <0>         0.0984
     50 H27        -0.7546   -0.3719   -0.6909 H         1 <0>         0.1150
     51 H28         3.9233   -0.8449   -0.7150 H         1 <0>         0.3962
     52 H29         6.7305   -0.1735    0.2819 H         1 <0>         0.0981
     53 H30         6.5435   -1.2151    1.7131 H         1 <0>         0.0983
     54 H31         5.9689   -1.7745    0.1240 H         1 <0>         0.0784
     55 H32         0.7620   -2.4533   -0.7244 H         1 <0>         0.4427
     56 H33         2.3912   -2.3016   -0.4267 H         1 <0>         0.4285
     57 N2          1.4650   -1.9577   -0.1787 N.4       1 <0>        -0.6387
     58 H34         1.2988   -2.1324    0.8194 H         1 <0>         0.4401
     59 O4         -2.4585    1.4438    0.0213 O.co2     1 <0>        -0.7524
@<TRIPOS>BOND
     1    1    2 1
     2    1   27 1
     3    1   28 1
     4    1   29 1
     5    2    3 1
     6    2   30 1
     7    2   31 1
     8    3    4 1
     9    3   32 1
    10    3   33 1
    11    4    5 1
    12    4   34 1
    13    4   35 1
    14    5    6 1
    15    5   36 1
    16    5   37 1
    17    6    7 1
    18    6   38 1
    19    6   39 1
    20    7    8 1
    21    7   40 1
    22    7   41 1
    23    8    9 1
    24    8   42 1
    25    8   43 1
    26    9   10 1
    27    9   44 1
    28    9   45 1
    29   10   11 1
    30   10   46 1
    31   10   47 1
    32   11   12 1
    33   12   13 1
    34   12   19 1
    35   12   14 1
    36   14   15 2
    37   14   48 1
    38   15   16 1
    39   15   25 1
    40   16   17 1
    41   16   49 1
    42   16   50 1
    43   17   18 1
    44   17   19 1
    45   17   57 1
    46   19   20 1
    47   19   21 1
    48   21   22 am
    49   21   51 1
    50   22   23 2
    51   22   24 1
    52   24   52 1
    53   24   53 1
    54   24   54 1
    55   25   26 2
    56   25   59 1
    57   55   57 1
    58   56   57 1
    59   57   58 1
@<TRIPOS>MOLECULE
ZINC04646294
   59    59     0     0     0
SMALL
USER_CHARGES

@<TRIPOS>ATOM
      1 C1         -4.6728   -3.8750    5.3802 C.3       1 <0>        -0.1557
      2 C2         -3.7312   -3.4657    4.2459 C.3       1 <0>        -0.1247
      3 C3         -2.4592   -2.8528    4.8350 C.3       1 <0>        -0.1225
      4 C4         -1.5175   -2.4436    3.7007 C.3       1 <0>        -0.1192
      5 C5         -0.2455   -1.8307    4.2899 C.3       1 <0>        -0.1222
      6 C6          0.6962   -1.4214    3.1555 C.3       1 <0>        -0.1231
      7 C7          1.9682   -0.8085    3.7447 C.3       1 <0>        -0.1421
      8 C8          2.8888   -0.3552    2.6098 C.3       1 <0>         0.0869
      9 H1          3.0568   -1.1859    1.9244 H         1 <0>         0.0699
     10 C9          4.2271    0.1046    3.1916 C.3       1 <0>        -0.1202
     11 C10         5.1989    0.4157    2.0515 C.3       1 <0>        -0.1543
     12 O1          2.2785    0.7279    1.9052 O.3       1 <0>        -0.3552
     13 C11         1.5457    0.3274    0.7456 C.3       1 <0>         0.1228
     14 H2          1.0253   -0.6078    0.9521 H         1 <0>         0.0847
     15 C12         2.4965    0.1226   -0.3977 C.2       1 <0>        -0.1692
     16 C13         2.2627    0.5326   -1.6266 C.2       1 <0>        -0.1239
     17 C14         1.0194    1.2653   -2.0395 C.3       1 <0>        -0.0845
     18 C15        -0.0734    1.0915   -0.9837 C.3       1 <0>         0.0201
     19 H3         -0.4320    0.0623   -0.9984 H         1 <0>         0.1484
     20 C16         0.5232    1.4096    0.3928 C.3       1 <0>         0.1240
     21 H4          1.0148    2.3820    0.3630 H         1 <0>         0.1325
     22 N1         -0.5417    1.4272    1.3987 N.am      1 <0>        -0.7326
     23 C17        -1.1473    2.5879    1.7187 C.2       1 <0>         0.5060
     24 O2         -0.8072    3.6186    1.1777 O.2       1 <0>        -0.5417
     25 C18        -2.2470    2.6050    2.7490 C.3       1 <0>        -0.1781
     26 C19         3.2771    0.2567   -2.6534 C.2       1 <0>         0.4779
     27 O3          4.2966   -0.3346   -2.3569 O.co2     1 <0>        -0.6147
     28 H5         -4.1776   -4.6080    6.0170 H         1 <0>         0.0547
     29 H6         -4.9327   -2.9968    5.9713 H         1 <0>         0.0534
     30 H7         -5.5791   -4.3116    4.9605 H         1 <0>         0.0542
     31 H8         -4.2265   -2.7327    3.6091 H         1 <0>         0.0580
     32 H9         -3.4713   -4.3439    3.6548 H         1 <0>         0.0609
     33 H10        -1.9639   -3.5858    5.4718 H         1 <0>         0.0631
     34 H11        -2.7191   -1.9747    5.4261 H         1 <0>         0.0610
     35 H12        -2.0128   -1.7106    3.0639 H         1 <0>         0.0545
     36 H13        -1.2576   -3.3217    3.1096 H         1 <0>         0.0630
     37 H14         0.2498   -2.5637    4.9266 H         1 <0>         0.0663
     38 H15        -0.5054   -0.9525    4.8810 H         1 <0>         0.0625
     39 H16         0.2009   -0.6884    2.5187 H         1 <0>         0.0524
     40 H17         0.9561   -2.2996    2.5644 H         1 <0>         0.0654
     41 H18         2.4816   -1.5525    4.3538 H         1 <0>         0.0772
     42 H19         1.7052    0.0492    4.3638 H         1 <0>         0.0721
     43 H20         4.0733    1.0008    3.7926 H         1 <0>         0.0692
     44 H21         4.6420   -0.6857    3.8172 H         1 <0>         0.0758
     45 H22         6.1783    0.6570    2.4645 H         1 <0>         0.0552
     46 H23         5.2838   -0.4535    1.3992 H         1 <0>         0.0575
     47 H24         4.8268    1.2650    1.4785 H         1 <0>         0.0615
     48 H25         3.4262   -0.3905   -0.2006 H         1 <0>         0.1393
     49 H26         1.2450    2.3259   -2.1502 H         1 <0>         0.0984
     50 H27         0.6663    0.8697   -2.9918 H         1 <0>         0.1143
     51 H28        -0.8137    0.6028    1.8314 H         1 <0>         0.4104
     52 H29        -2.4120    1.5938    3.1211 H         1 <0>         0.0823
     53 H30        -1.9600    3.2543    3.5761 H         1 <0>         0.1066
     54 H31        -3.1646    2.9791    2.2948 H         1 <0>         0.1018
     55 H32        -1.5939    1.8182   -2.1663 H         1 <0>         0.4395
     56 H33        -1.8820    1.9667   -0.5351 H         1 <0>         0.4242
     57 N2         -1.1730    2.0317   -1.2635 N.4       1 <0>        -0.6366
     58 H34        -0.8015    2.9887   -1.2851 H         1 <0>         0.4432
     59 O4          3.0767    0.6595   -3.9241 O.co2     1 <0>        -0.7505
@<TRIPOS>BOND
     1    1    2 1
     2    1   28 1
     3    1   29 1
     4    1   30 1
     5    2    3 1
     6    2   31 1
     7    2   32 1
     8    3    4 1
     9    3   33 1
    10    3   34 1
    11    4    5 1
    12    4   35 1
    13    4   36 1
    14    5    6 1
    15    5   37 1
    16    5   38 1
    17    6    7 1
    18    6   39 1
    19    6   40 1
    20    7    8 1
    21    7   41 1
    22    7   42 1
    23    8    9 1
    24    8   10 1
    25    8   12 1
    26   10   11 1
    27   10   43 1
    28   10   44 1
    29   11   45 1
    30   11   46 1
    31   11   47 1
    32   12   13 1
    33   13   14 1
    34   13   20 1
    35   13   15 1
    36   15   16 2
    37   15   48 1
    38   16   17 1
    39   16   26 1
    40   17   18 1
    41   17   49 1
    42   17   50 1
    43   18   19 1
    44   18   20 1
    45   18   57 1
    46   20   21 1
    47   20   22 1
    48   22   23 am
    49   22   51 1
    50   23   24 2
    51   23   25 1
    52   25   52 1
    53   25   53 1
    54   25   54 1
    55   26   27 2
    56   26   59 1
    57   55   57 1
    58   56   57 1
    59   57   58 1
