@<TRIPOS>MOLECULE
ZINC00006854
   39    42     0     0     0
SMALL
USER_CHARGES

@<TRIPOS>ATOM
      1 C1          3.5020    2.3010    0.3369 C.ar      1 <0>        -0.0939
      2 C2          4.7931    1.8539    0.5249 C.ar      1 <0>        -0.1439
      3 C3          5.0385    0.5066    0.7370 C.ar      1 <0>         0.0987
      4 C4          3.9891   -0.3980    0.7659 C.ar      1 <0>        -0.1431
      5 C5          2.6937    0.0387    0.5834 C.ar      1 <0>        -0.0727
      6 C6          2.4406    1.3949    0.3698 C.ar      1 <0>        -0.0270
      7 C7          1.0544    1.8687    0.1731 C.2       1 <0>         0.0643
      8 C8         -0.0593    1.0867    0.1773 C.2       1 <0>        -0.1447
      9 C9         -1.1704    1.9260   -0.0513 C.2       1 <0>        -0.1158
     10 C10        -0.6844    3.2193   -0.1800 C.2       1 <0>         0.0909
     11 N1          0.6773    3.1702   -0.0446 N.pl3     1 <0>        -0.5383
     12 H1          1.2771    3.9309   -0.0940 H         1 <0>         0.4184
     13 C11        -1.4905    4.4304   -0.4263 C.ar      1 <0>        -0.0404
     14 C12        -2.4744    4.4284   -1.4183 C.ar      1 <0>        -0.0587
     15 C13        -3.2276    5.5617   -1.6405 C.ar      1 <0>        -0.1484
     16 C14        -3.0029    6.7048   -0.8896 C.ar      1 <0>         0.1086
     17 C15        -2.0250    6.7145    0.0927 C.ar      1 <0>        -0.1499
     18 C16        -1.2690    5.5857    0.3277 C.ar      1 <0>        -0.0798
     19 F1         -3.7404    7.8140   -1.1156 F         1 <0>        -0.1352
     20 C17        -2.5882    1.5063   -0.1342 C.ar      1 <0>         0.0381
     21 C18        -3.5571    2.0785    0.6975 C.ar      1 <0>        -0.1598
     22 C19        -4.8666    1.6620    0.5833 C.ar      1 <0>         0.1011
     23 N2         -5.2079    0.7305   -0.2871 N.ar      1 <0>        -0.4887
     24 C20        -4.3248    0.1618   -1.0862 C.ar      1 <0>         0.1003
     25 C21        -2.9947    0.5225   -1.0423 C.ar      1 <0>        -0.1644
     26 F2          6.3056    0.0734    0.9159 F         1 <0>        -0.1364
     27 H2          3.3123    3.3507    0.1675 H         1 <0>         0.1260
     28 H3          5.6147    2.5546    0.5030 H         1 <0>         0.1393
     29 H4          4.1860   -1.4469    0.9313 H         1 <0>         0.1421
     30 H5          1.8766   -0.6672    0.6054 H         1 <0>         0.1403
     31 H6         -0.0873    0.0171    0.3243 H         1 <0>         0.1471
     32 H7         -2.6473    3.5397   -2.0070 H         1 <0>         0.1350
     33 H8         -3.9915    5.5599   -2.4040 H         1 <0>         0.1410
     34 H9         -1.8547    7.6080    0.6749 H         1 <0>         0.1405
     35 H10        -0.5068    5.5945    1.0929 H         1 <0>         0.1324
     36 H11        -3.2841    2.8377    1.4154 H         1 <0>         0.1313
     37 H12        -5.6224    2.1006    1.2180 H         1 <0>         0.1545
     38 H13        -4.6483   -0.5966   -1.7838 H         1 <0>         0.1558
     39 H14        -2.2775    0.0529   -1.6992 H         1 <0>         0.1355
@<TRIPOS>BOND
     1    1    6 ar
     2    1    2 ar
     3    1   27 1
     4    2    3 ar
     5    2   28 1
     6    3    4 ar
     7    3   26 1
     8    4    5 ar
     9    4   29 1
    10    5    6 ar
    11    5   30 1
    12    6    7 1
    13    7   11 1
    14    7    8 2
    15    8    9 1
    16    8   31 1
    17    9   10 2
    18    9   20 1
    19   10   11 1
    20   10   13 1
    21   11   12 1
    22   13   18 ar
    23   13   14 ar
    24   14   15 ar
    25   14   32 1
    26   15   16 ar
    27   15   33 1
    28   16   17 ar
    29   16   19 1
    30   17   18 ar
    31   17   34 1
    32   18   35 1
    33   20   25 ar
    34   20   21 ar
    35   21   22 ar
    36   21   36 1
    37   22   23 ar
    38   22   37 1
    39   23   24 ar
    40   24   25 ar
    41   24   38 1
    42   25   39 1
@<TRIPOS>MOLECULE
ZINC00007301
   28    30     0     0     0
SMALL
USER_CHARGES

@<TRIPOS>ATOM
      1 C1         -0.0126    1.0758    0.0080 C.ar      1 <0>        -0.0609
      2 C2          1.1719    1.7829    0.0004 C.ar      1 <0>        -0.1530
      3 C3          1.1544    3.1684    0.0076 C.ar      1 <0>         0.1035
      4 C4         -0.0516    3.8505    0.0229 C.ar      1 <0>        -0.1516
      5 C5         -1.2414    3.1524    0.0314 C.ar      1 <0>        -0.0738
      6 C6         -1.2291    1.7578    0.0174 C.ar      1 <0>        -0.0195
      7 C7         -2.5040    1.0033    0.0193 C.2       1 <0>         0.0742
      8 C8         -3.6712    1.3683    0.6662 C.2       1 <0>         0.0152
      9 N1         -4.5870    0.3774    0.3922 N.pl3     1 <0>        -0.5598
     10 H1         -5.5334    0.3404    0.7130 H         1 <0>         0.4317
     11 C9         -3.9714   -0.5349   -0.3895 C.2       1 <0>         0.2081
     12 N2         -2.7423   -0.1605   -0.6126 N.2       1 <0>        -0.4786
     13 C10        -3.8906    2.5764    1.4845 C.ar      1 <0>         0.0270
     14 C11        -2.9469    2.9819    2.4379 C.ar      1 <0>        -0.1463
     15 C12        -3.1905    4.1199    3.1766 C.ar      1 <0>         0.1070
     16 N3         -4.2977    4.8171    3.0028 N.ar      1 <0>        -0.4807
     17 C13        -5.2147    4.4681    2.1198 C.ar      1 <0>         0.1063
     18 C14        -5.0512    3.3473    1.3343 C.ar      1 <0>        -0.1677
     19 F1          2.3170    3.8565   -0.0007 F         1 <0>        -0.1378
     20 H2          0.0021   -0.0041    0.0020 H         1 <0>         0.1386
     21 H3          2.1144    1.2557   -0.0114 H         1 <0>         0.1394
     22 H4         -0.0602    4.9304    0.0284 H         1 <0>         0.1381
     23 H5         -2.1809    3.6849    0.0436 H         1 <0>         0.1289
     24 H6         -4.4281   -1.4346   -0.7747 H         1 <0>         0.2163
     25 H7         -2.0409    2.4137    2.5887 H         1 <0>         0.1396
     26 H8         -2.4676    4.4427    3.9112 H         1 <0>         0.1618
     27 H9         -6.1056    5.0689    2.0116 H         1 <0>         0.1601
     28 H10        -5.8057    3.0678    0.6139 H         1 <0>         0.1338
@<TRIPOS>BOND
     1    1    6 ar
     2    1    2 ar
     3    1   20 1
     4    2    3 ar
     5    2   21 1
     6    3    4 ar
     7    3   19 1
     8    4    5 ar
     9    4   22 1
    10    5    6 ar
    11    5   23 1
    12    6    7 1
    13    7   12 1
    14    7    8 2
    15    8    9 1
    16    8   13 1
    17    9   10 1
    18    9   11 1
    19   11   12 2
    20   11   24 1
    21   13   18 ar
    22   13   14 ar
    23   14   15 ar
    24   14   25 1
    25   15   16 ar
    26   15   26 1
    27   16   17 ar
    28   17   18 ar
    29   17   27 1
    30   18   28 1
@<TRIPOS>MOLECULE
ZINC00007453
   40    43     0     0     0
SMALL
USER_CHARGES

@<TRIPOS>ATOM
      1 C1         -4.7770   -0.4905   -0.1085 C.3       1 <0>         0.0234
      2 O1         -4.8286    0.9376   -0.1132 O.3       1 <0>        -0.2966
      3 C2         -3.6500    1.5971    0.0192 C.ar      1 <0>         0.2565
      4 C3         -2.4564    0.9047    0.1522 C.ar      1 <0>        -0.3493
      5 C4         -1.2682    1.6179    0.2852 C.ar      1 <0>         0.4794
      6 N1         -1.2546    2.9402    0.2927 N.ar      1 <0>        -0.5866
      7 C5         -2.3699    3.6531    0.1630 C.ar      1 <0>         0.3770
      8 C6         -3.6042    2.9995    0.0249 C.ar      1 <0>        -0.2094
      9 C7         -4.6243    4.0512   -0.0886 C.2       1 <0>        -0.0794
     10 C8         -3.9514    5.2536   -0.0129 C.2       1 <0>         0.1178
     11 N2         -2.6074    5.0077    0.1371 N.pl3     1 <0>        -0.5648
     12 H1         -1.9240    5.6918    0.2140 H         1 <0>         0.4233
     13 C9         -4.5750    6.5896   -0.0815 C.ar      1 <0>        -0.0428
     14 C10        -5.7150    6.8711    0.6753 C.ar      1 <0>        -0.0579
     15 C11        -6.2903    8.1225    0.6108 C.ar      1 <0>        -0.1487
     16 C12        -5.7463    9.0968   -0.2114 C.ar      1 <0>         0.1100
     17 C13        -4.6182    8.8219   -0.9683 C.ar      1 <0>        -0.1502
     18 C14        -4.0310    7.5758   -0.9080 C.ar      1 <0>        -0.0753
     19 F1         -6.3176   10.3194   -0.2749 F         1 <0>        -0.1353
     20 C15        -6.0811    3.8593   -0.2514 C.ar      1 <0>         0.0434
     21 C16        -6.7306    4.2454   -1.4305 C.ar      1 <0>        -0.1566
     22 C17        -8.0898    4.0442   -1.5413 C.ar      1 <0>         0.0996
     23 N3         -8.7781    3.5053   -0.5522 N.ar      1 <0>        -0.4870
     24 C18        -8.2063    3.1316    0.5773 C.ar      1 <0>         0.0990
     25 C19        -6.8511    3.2917    0.7715 C.ar      1 <0>        -0.1503
     26 N4         -0.0707    0.9250    0.4186 N.pl3     1 <0>        -0.8446
     27 H2         -4.3525   -0.8356    0.8342 H         1 <0>         0.0604
     28 H3         -5.7845   -0.8908   -0.2216 H         1 <0>         0.1040
     29 H4         -4.1546   -0.8343   -0.9347 H         1 <0>         0.0597
     30 H5         -2.4484   -0.1753    0.1529 H         1 <0>         0.1403
     31 H6         -6.1423    6.1113    1.3129 H         1 <0>         0.1361
     32 H7         -7.1690    8.3427    1.1988 H         1 <0>         0.1415
     33 H8         -4.1985    9.5851   -1.6069 H         1 <0>         0.1411
     34 H9         -3.1524    7.3625   -1.4988 H         1 <0>         0.1348
     35 H10        -6.1745    4.6911   -2.2420 H         1 <0>         0.1312
     36 H11        -8.5991    4.3352   -2.4480 H         1 <0>         0.1542
     37 H12        -8.8086    2.6949    1.3602 H         1 <0>         0.1542
     38 H13        -6.3899    2.9837    1.6983 H         1 <0>         0.1316
     39 H14        -0.0690   -0.0450    0.4184 H         1 <0>         0.4107
     40 H15         0.7638    1.4114    0.5080 H         1 <0>         0.4059
@<TRIPOS>BOND
     1    1    2 1
     2    1   27 1
     3    1   28 1
     4    1   29 1
     5    2    3 1
     6    3    8 ar
     7    3    4 ar
     8    4    5 ar
     9    4   30 1
    10    5    6 ar
    11    5   26 1
    12    6    7 ar
    13    7   11 1
    14    7    8 ar
    15    8    9 1
    16    9   10 2
    17    9   20 1
    18   10   11 1
    19   10   13 1
    20   11   12 1
    21   13   18 ar
    22   13   14 ar
    23   14   15 ar
    24   14   31 1
    25   15   16 ar
    26   15   32 1
    27   16   17 ar
    28   16   19 1
    29   17   18 ar
    30   17   33 1
    31   18   34 1
    32   20   25 ar
    33   20   21 ar
    34   21   22 ar
    35   21   35 1
    36   22   23 ar
    37   22   36 1
    38   23   24 ar
    39   24   25 ar
    40   24   37 1
    41   25   38 1
    42   26   39 1
    43   26   40 1
@<TRIPOS>MOLECULE
ZINC00020320
   39    42     0     0     0
SMALL
USER_CHARGES

@<TRIPOS>ATOM
      1 C1         -2.4784    1.5855    0.3788 C.ar      1 <0>        -0.0913
      2 C2         -3.5981    2.3553    0.6083 C.ar      1 <0>        -0.1414
      3 C3         -3.4676    3.7120    0.8760 C.ar      1 <0>         0.1207
      4 C4         -2.2086    4.2974    0.9183 C.ar      1 <0>        -0.1422
      5 C5         -1.0836    3.5333    0.6955 C.ar      1 <0>        -0.0563
      6 C6         -1.2106    2.1689    0.4265 C.ar      1 <0>        -0.0311
      7 C7         -0.0069    1.3459    0.1872 C.2       1 <0>         0.2704
      8 N1         -0.0043    0.0089   -0.0841 N.pl3     1 <0>        -0.5540
      9 H1         -0.8062   -0.5847   -0.1524 H         1 <0>         0.4304
     10 C8          1.3103   -0.3701   -0.2464 C.2       1 <0>         0.0288
     11 C9          2.0714    0.7727   -0.0642 C.2       1 <0>         0.0802
     12 N2          1.2313    1.7865    0.1960 N.2       1 <0>        -0.4566
     13 C10         3.5485    0.8603   -0.1425 C.ar      1 <0>        -0.0194
     14 C11         4.3397   -0.1319    0.4358 C.ar      1 <0>        -0.0701
     15 C12         5.7143   -0.0487    0.3557 C.ar      1 <0>        -0.1512
     16 C13         6.3093    1.0239   -0.2889 C.ar      1 <0>         0.1049
     17 C14         5.5276    2.0151   -0.8600 C.ar      1 <0>        -0.1527
     18 C15         4.1520    1.9381   -0.7897 C.ar      1 <0>        -0.0605
     19 F1          7.6561    1.1037   -0.3603 F         1 <0>        -0.1375
     20 C16         1.8082   -1.7237   -0.5536 C.ar      1 <0>         0.0252
     21 C17         2.7545   -1.9309   -1.5670 C.ar      1 <0>        -0.1434
     22 C18         3.1950   -3.2126   -1.8172 C.ar      1 <0>         0.1077
     23 N3          2.7314   -4.2364   -1.1248 N.ar      1 <0>        -0.4796
     24 C19         1.8369   -4.0870   -0.1656 C.ar      1 <0>         0.1065
     25 C20         1.3443   -2.8405    0.1555 C.ar      1 <0>        -0.1659
     26 O1         -4.5740    4.4685    1.0965 O.3       1 <0>        -0.4977
     27 H2         -2.5810    0.5316    0.1663 H         1 <0>         0.1229
     28 H3         -4.5787    1.9039    0.5763 H         1 <0>         0.1358
     29 H4         -2.1113    5.3527    1.1263 H         1 <0>         0.1380
     30 H5         -0.1051    3.9891    0.7286 H         1 <0>         0.1439
     31 H6          3.8769   -0.9660    0.9423 H         1 <0>         0.1287
     32 H7          6.3278   -0.8186    0.8000 H         1 <0>         0.1383
     33 H8          5.9959    2.8496   -1.3608 H         1 <0>         0.1396
     34 H9          3.5435    2.7113   -1.2349 H         1 <0>         0.1376
     35 H10         3.1351   -1.0985   -2.1403 H         1 <0>         0.1395
     36 H11         3.9266   -3.3822   -2.5933 H         1 <0>         0.1619
     37 H12         1.4859   -4.9537    0.3748 H         1 <0>         0.1604
     38 H13         0.6126   -2.7259    0.9415 H         1 <0>         0.1341
     39 H14        -4.9468    4.8628    0.2961 H         1 <0>         0.3955
@<TRIPOS>BOND
     1    1    6 ar
     2    1    2 ar
     3    1   27 1
     4    2    3 ar
     5    2   28 1
     6    3    4 ar
     7    3   26 1
     8    4    5 ar
     9    4   29 1
    10    5    6 ar
    11    5   30 1
    12    6    7 1
    13    7   12 2
    14    7    8 1
    15    8    9 1
    16    8   10 1
    17   10   11 2
    18   10   20 1
    19   11   12 1
    20   11   13 1
    21   13   18 ar
    22   13   14 ar
    23   14   15 ar
    24   14   31 1
    25   15   16 ar
    26   15   32 1
    27   16   17 ar
    28   16   19 1
    29   17   18 ar
    30   17   33 1
    31   18   34 1
    32   20   25 ar
    33   20   21 ar
    34   21   22 ar
    35   21   35 1
    36   22   23 ar
    37   22   36 1
    38   23   24 ar
    39   24   25 ar
    40   24   37 1
    41   25   38 1
    42   26   39 1
@<TRIPOS>MOLECULE
ZINC00020320
   40    43     0     0     0
SMALL
USER_CHARGES

@<TRIPOS>ATOM
      1 C1         -2.4784    1.5855    0.3788 C.ar      1 <0>        -0.0514
      2 C2         -3.5981    2.3553    0.6083 C.ar      1 <0>        -0.1376
      3 C3         -3.4676    3.7120    0.8760 C.ar      1 <0>         0.1728
      4 C4         -2.2086    4.2974    0.9183 C.ar      1 <0>        -0.1371
      5 C5         -1.0836    3.5333    0.6955 C.ar      1 <0>        -0.0538
      6 C6         -1.2106    2.1689    0.4265 C.ar      1 <0>        -0.1092
      7 C7         -0.0069    1.3459    0.1872 C.cat     1 <0>         0.3964
      8 N1         -0.0043    0.0089   -0.0841 N.pl3     1 <0>        -0.5097
      9 H1         -0.8062   -0.5847   -0.1524 H         1 <0>         0.4713
     10 C8          1.3103   -0.3701   -0.2464 C.2       1 <0>         0.1160
     11 C9          2.0714    0.7727   -0.0642 C.2       1 <0>         0.1140
     12 C10         3.5485    0.8603   -0.1425 C.ar      1 <0>        -0.0847
     13 C11         4.3397   -0.1319    0.4358 C.ar      1 <0>        -0.0438
     14 C12         5.7143   -0.0487    0.3557 C.ar      1 <0>        -0.1464
     15 C13         6.3093    1.0239   -0.2889 C.ar      1 <0>         0.1426
     16 C14         5.5276    2.0151   -0.8600 C.ar      1 <0>        -0.1473
     17 C15         4.1520    1.9381   -0.7897 C.ar      1 <0>        -0.0617
     18 F1          7.6561    1.1037   -0.3603 F         1 <0>        -0.1209
     19 C16         1.8082   -1.7237   -0.5536 C.ar      1 <0>        -0.0200
     20 C17         2.7545   -1.9309   -1.5670 C.ar      1 <0>        -0.1301
     21 C18         3.1950   -3.2126   -1.8172 C.ar      1 <0>         0.1169
     22 N2          2.7314   -4.2364   -1.1248 N.ar      1 <0>        -0.4581
     23 C19         1.8369   -4.0870   -0.1656 C.ar      1 <0>         0.1164
     24 C20         1.3443   -2.8405    0.1555 C.ar      1 <0>        -0.1485
     25 O1         -4.5740    4.4685    1.0965 O.3       1 <0>        -0.4901
     26 H2         -2.5810    0.5316    0.1663 H         1 <0>         0.1366
     27 H3         -4.5787    1.9039    0.5763 H         1 <0>         0.1536
     28 H4         -2.1113    5.3527    1.1263 H         1 <0>         0.1539
     29 H5         -0.1051    3.9891    0.7286 H         1 <0>         0.1367
     30 H6          3.8769   -0.9660    0.9423 H         1 <0>         0.1397
     31 H7          6.3278   -0.8186    0.8000 H         1 <0>         0.1526
     32 H8          5.9959    2.8496   -1.3608 H         1 <0>         0.1525
     33 H9          3.5435    2.7113   -1.2349 H         1 <0>         0.1383
     34 H10         3.1351   -1.0985   -2.1403 H         1 <0>         0.1458
     35 H11         3.9266   -3.3822   -2.5933 H         1 <0>         0.1717
     36 H12         1.4859   -4.9537    0.3748 H         1 <0>         0.1712
     37 H13         0.6126   -2.7259    0.9415 H         1 <0>         0.1422
     38 H14        -4.9468    4.8628    0.2961 H         1 <0>         0.4113
     39 N3          1.2315    1.7872    0.1961 N.pl3     1 <0>        -0.4797
     40 H15         1.5130    2.7583    0.3747 H         1 <0>         0.4779
@<TRIPOS>BOND
     1    1    6 ar
     2    1    2 ar
     3    1   26 1
     4    2    3 ar
     5    2   27 1
     6    3    4 ar
     7    3   25 1
     8    4    5 ar
     9    4   28 1
    10    5    6 ar
    11    5   29 1
    12    6    7 1
    13    7    8 1
    14    7   39 2
    15    8    9 1
    16    8   10 1
    17   10   11 2
    18   10   19 1
    19   11   12 1
    20   11   39 1
    21   12   17 ar
    22   12   13 ar
    23   13   14 ar
    24   13   30 1
    25   14   15 ar
    26   14   31 1
    27   15   16 ar
    28   15   18 1
    29   16   17 ar
    30   16   32 1
    31   17   33 1
    32   19   24 ar
    33   19   20 ar
    34   20   21 ar
    35   20   34 1
    36   21   22 ar
    37   21   35 1
    38   22   23 ar
    39   23   24 ar
    40   23   36 1
    41   24   37 1
    42   25   38 1
    43   39   40 1
@<TRIPOS>MOLECULE
ZINC00020320
   39    42     0     0     0
SMALL
USER_CHARGES

@<TRIPOS>ATOM
      1 C1         -2.4784    1.5855    0.3788 C.ar      1 <0>        -0.0565
      2 C2         -3.5981    2.3553    0.6083 C.ar      1 <0>        -0.1415
      3 C3         -3.4676    3.7120    0.8760 C.ar      1 <0>         0.1201
      4 C4         -2.2086    4.2974    0.9183 C.ar      1 <0>        -0.1403
      5 C5         -1.0836    3.5333    0.6955 C.ar      1 <0>        -0.0944
      6 C6         -1.2106    2.1689    0.4265 C.ar      1 <0>        -0.0304
      7 C7         -0.0069    1.3459    0.1872 C.2       1 <0>         0.2402
      8 N1         -0.0043    0.0089   -0.0841 N.2       1 <0>        -0.4493
      9 H1          1.5059    2.7309    0.3771 H         1 <0>         0.4290
     10 C8          1.3103   -0.3701   -0.2464 C.2       1 <0>         0.0597
     11 C9          2.0720    0.7707   -0.0544 C.2       1 <0>         0.0293
     12 N2          1.2317    1.7853    0.2018 N.pl3     1 <0>        -0.5083
     13 C10         3.5495    0.8569   -0.1258 C.ar      1 <0>        -0.0349
     14 C11         4.3371   -0.1360    0.4562 C.ar      1 <0>        -0.0596
     15 C12         5.7121   -0.0542    0.3826 C.ar      1 <0>        -0.1456
     16 C13         6.3112    1.0179   -0.2592 C.ar      1 <0>         0.1094
     17 C14         5.5331    2.0098   -0.8340 C.ar      1 <0>        -0.1478
     18 C15         4.1571    1.9341   -0.7701 C.ar      1 <0>        -0.0823
     19 F1          7.6584    1.0964   -0.3243 F         1 <0>        -0.1343
     20 C16         1.8082   -1.7237   -0.5536 C.ar      1 <0>         0.0419
     21 C17         2.7545   -1.9309   -1.5670 C.ar      1 <0>        -0.1530
     22 C18         3.1950   -3.2126   -1.8172 C.ar      1 <0>         0.1016
     23 N3          2.7314   -4.2364   -1.1248 N.ar      1 <0>        -0.4831
     24 C19         1.8369   -4.0870   -0.1656 C.ar      1 <0>         0.1009
     25 C20         1.3443   -2.8405    0.1555 C.ar      1 <0>        -0.1472
     26 O1         -4.5740    4.4685    1.0965 O.3       1 <0>        -0.4977
     27 H2         -2.5810    0.5316    0.1663 H         1 <0>         0.1434
     28 H3         -4.5787    1.9039    0.5763 H         1 <0>         0.1379
     29 H4         -2.1113    5.3527    1.1263 H         1 <0>         0.1361
     30 H5         -0.1051    3.9891    0.7286 H         1 <0>         0.1227
     31 H6          3.8711   -0.9697    0.9605 H         1 <0>         0.1350
     32 H7          6.3228   -0.8246    0.8297 H         1 <0>         0.1426
     33 H8          6.0045    2.8439   -1.3326 H         1 <0>         0.1415
     34 H9          3.5514    2.7079   -1.2182 H         1 <0>         0.1314
     35 H10         3.1351   -1.0985   -2.1403 H         1 <0>         0.1334
     36 H11         3.9266   -3.3822   -2.5933 H         1 <0>         0.1578
     37 H12         1.4859   -4.9537    0.3748 H         1 <0>         0.1588
     38 H13         0.6126   -2.7259    0.9415 H         1 <0>         0.1381
     39 H14        -4.9468    4.8628    0.2961 H         1 <0>         0.3955
@<TRIPOS>BOND
     1    1    6 ar
     2    1    2 ar
     3    1   27 1
     4    2    3 ar
     5    2   28 1
     6    3    4 ar
     7    3   26 1
     8    4    5 ar
     9    4   29 1
    10    5    6 ar
    11    5   30 1
    12    6    7 1
    13    7    8 2
    14    7   12 1
    15    8   10 1
    16    9   12 1
    17   10   11 2
    18   10   20 1
    19   11   12 1
    20   11   13 1
    21   13   18 ar
    22   13   14 ar
    23   14   15 ar
    24   14   31 1
    25   15   16 ar
    26   15   32 1
    27   16   17 ar
    28   16   19 1
    29   17   18 ar
    30   17   33 1
    31   18   34 1
    32   20   25 ar
    33   20   21 ar
    34   21   22 ar
    35   21   35 1
    36   22   23 ar
    37   22   36 1
    38   23   24 ar
    39   24   25 ar
    40   24   37 1
    41   25   38 1
    42   26   39 1
@<TRIPOS>MOLECULE
ZINC00020320
   39    42     0     0     0
SMALL
USER_CHARGES

@<TRIPOS>ATOM
      1 C1         -2.4784    1.5855    0.3788 C.ar      1 <0>        -0.0913
      2 C2         -3.5981    2.3553    0.6083 C.ar      1 <0>        -0.1414
      3 C3         -3.4676    3.7120    0.8760 C.ar      1 <0>         0.1207
      4 C4         -2.2086    4.2974    0.9183 C.ar      1 <0>        -0.1422
      5 C5         -1.0836    3.5333    0.6955 C.ar      1 <0>        -0.0563
      6 C6         -1.2106    2.1689    0.4265 C.ar      1 <0>        -0.0311
      7 C7         -0.0069    1.3459    0.1872 C.2       1 <0>         0.2704
      8 N1         -0.0043    0.0089   -0.0841 N.pl3     1 <0>        -0.5540
      9 H1         -0.8062   -0.5847   -0.1524 H         1 <0>         0.4304
     10 C8          1.3103   -0.3701   -0.2464 C.2       1 <0>         0.0288
     11 C9          2.0714    0.7727   -0.0642 C.2       1 <0>         0.0802
     12 N2          1.2313    1.7865    0.1960 N.2       1 <0>        -0.4566
     13 C10         3.5485    0.8603   -0.1425 C.ar      1 <0>        -0.0194
     14 C11         4.3397   -0.1319    0.4358 C.ar      1 <0>        -0.0701
     15 C12         5.7143   -0.0487    0.3557 C.ar      1 <0>        -0.1512
     16 C13         6.3093    1.0239   -0.2889 C.ar      1 <0>         0.1049
     17 C14         5.5276    2.0151   -0.8600 C.ar      1 <0>        -0.1527
     18 C15         4.1520    1.9381   -0.7897 C.ar      1 <0>        -0.0605
     19 F1          7.6561    1.1037   -0.3603 F         1 <0>        -0.1375
     20 C16         1.8082   -1.7237   -0.5536 C.ar      1 <0>         0.0252
     21 C17         2.7545   -1.9309   -1.5670 C.ar      1 <0>        -0.1434
     22 C18         3.1950   -3.2126   -1.8172 C.ar      1 <0>         0.1077
     23 N3          2.7314   -4.2364   -1.1248 N.ar      1 <0>        -0.4796
     24 C19         1.8369   -4.0870   -0.1656 C.ar      1 <0>         0.1065
     25 C20         1.3443   -2.8405    0.1555 C.ar      1 <0>        -0.1659
     26 O1         -4.5740    4.4685    1.0965 O.3       1 <0>        -0.4977
     27 H2         -2.5810    0.5316    0.1663 H         1 <0>         0.1229
     28 H3         -4.5787    1.9039    0.5763 H         1 <0>         0.1358
     29 H4         -2.1113    5.3527    1.1263 H         1 <0>         0.1380
     30 H5         -0.1051    3.9891    0.7286 H         1 <0>         0.1439
     31 H6          3.8769   -0.9660    0.9423 H         1 <0>         0.1287
     32 H7          6.3278   -0.8186    0.8000 H         1 <0>         0.1383
     33 H8          5.9959    2.8496   -1.3608 H         1 <0>         0.1396
     34 H9          3.5435    2.7113   -1.2349 H         1 <0>         0.1376
     35 H10         3.1351   -1.0985   -2.1403 H         1 <0>         0.1395
     36 H11         3.9266   -3.3822   -2.5933 H         1 <0>         0.1619
     37 H12         1.4859   -4.9537    0.3748 H         1 <0>         0.1604
     38 H13         0.6126   -2.7259    0.9415 H         1 <0>         0.1341
     39 H14        -4.9468    4.8628    0.2961 H         1 <0>         0.3955
@<TRIPOS>BOND
     1    1    6 ar
     2    1    2 ar
     3    1   27 1
     4    2    3 ar
     5    2   28 1
     6    3    4 ar
     7    3   26 1
     8    4    5 ar
     9    4   29 1
    10    5    6 ar
    11    5   30 1
    12    6    7 1
    13    7   12 2
    14    7    8 1
    15    8    9 1
    16    8   10 1
    17   10   11 2
    18   10   20 1
    19   11   12 1
    20   11   13 1
    21   13   18 ar
    22   13   14 ar
    23   14   15 ar
    24   14   31 1
    25   15   16 ar
    26   15   32 1
    27   16   17 ar
    28   16   19 1
    29   17   18 ar
    30   17   33 1
    31   18   34 1
    32   20   25 ar
    33   20   21 ar
    34   21   22 ar
    35   21   35 1
    36   22   23 ar
    37   22   36 1
    38   23   24 ar
    39   24   25 ar
    40   24   37 1
    41   25   38 1
    42   26   39 1
@<TRIPOS>MOLECULE
ZINC00022119
   43    46     0     0     0
SMALL
USER_CHARGES

@<TRIPOS>ATOM
      1 C1          2.2318    5.2894    0.0064 C.3       1 <0>         0.0256
      2 O1          2.3226    3.8633   -0.0012 O.3       1 <0>        -0.3152
      3 C2          1.1535    3.1707    0.0071 C.ar      1 <0>         0.1293
      4 C3          1.1712    1.7822    0.0004 C.ar      1 <0>        -0.1425
      5 C4         -0.0126    1.0758    0.0080 C.ar      1 <0>        -0.0600
      6 C5         -1.2305    1.7584    0.0174 C.ar      1 <0>        -0.0563
      7 C6         -1.2439    3.1545    0.0304 C.ar      1 <0>        -0.0803
      8 C7         -0.0556    3.8533    0.0219 C.ar      1 <0>        -0.2003
      9 C8         -2.5022    1.0051    0.0193 C.2       1 <0>         0.0723
     10 C9         -2.6210   -0.3509    0.0130 C.2       1 <0>        -0.1532
     11 C10        -3.9981   -0.6581    0.0177 C.2       1 <0>        -0.1179
     12 C11        -4.6845    0.5475    0.0268 C.2       1 <0>         0.0870
     13 N1         -3.7582    1.5566    0.0338 N.pl3     1 <0>        -0.5400
     14 H1         -3.9577    2.5058    0.0444 H         1 <0>         0.4166
     15 C12        -6.1507    0.7132    0.0343 C.ar      1 <0>        -0.0284
     16 C13        -6.9475   -0.0483   -0.8243 C.ar      1 <0>        -0.0879
     17 C14        -8.3177    0.1081   -0.8081 C.ar      1 <0>        -0.1149
     18 C15        -8.9027    1.0249    0.0476 C.ar      1 <0>        -0.1117
     19 C16        -8.1194    1.7864    0.8971 C.ar      1 <0>        -0.1166
     20 C17        -6.7483    1.6365    0.8959 C.ar      1 <0>        -0.1114
     21 C18        -4.5978   -2.0123    0.0128 C.ar      1 <0>         0.0417
     22 C19        -5.5863   -2.3641    0.9384 C.ar      1 <0>        -0.1597
     23 C20        -6.1207   -3.6345    0.8957 C.ar      1 <0>         0.1004
     24 N2         -5.7049   -4.5148    0.0047 N.ar      1 <0>        -0.4904
     25 C21        -4.7718   -4.2254   -0.8827 C.ar      1 <0>         0.0996
     26 C22        -4.1873   -2.9770   -0.9138 C.ar      1 <0>        -0.1657
     27 H2          1.6871    5.6235   -0.8767 H         1 <0>         0.0566
     28 H3          1.7048    5.6151    0.9032 H         1 <0>         0.0566
     29 H4          3.2343    5.7173   -0.0016 H         1 <0>         0.1027
     30 H5          2.1137    1.2550   -0.0110 H         1 <0>         0.1373
     31 H6          0.0021   -0.0041    0.0020 H         1 <0>         0.1371
     32 H7         -2.1839    3.6862    0.0418 H         1 <0>         0.1180
     33 H8         -0.0651    4.9333    0.0270 H         1 <0>         0.1314
     34 H9         -1.8086   -1.0624    0.0058 H         1 <0>         0.1453
     35 H10        -6.4918   -0.7607   -1.4961 H         1 <0>         0.1235
     36 H11        -8.9352   -0.4831   -1.4681 H         1 <0>         0.1267
     37 H12        -9.9758    1.1464    0.0528 H         1 <0>         0.1252
     38 H13        -8.5828    2.4994    1.5628 H         1 <0>         0.1259
     39 H14        -6.1382    2.2312    1.5596 H         1 <0>         0.1199
     40 H15        -5.9283   -1.6500    1.6730 H         1 <0>         0.1302
     41 H16        -6.8866   -3.9144    1.6038 H         1 <0>         0.1537
     42 H17        -4.4616   -4.9767   -1.5938 H         1 <0>         0.1551
     43 H18        -3.4243   -2.7470   -1.6427 H         1 <0>         0.1348
@<TRIPOS>BOND
     1    1    2 1
     2    1   27 1
     3    1   28 1
     4    1   29 1
     5    2    3 1
     6    3    8 ar
     7    3    4 ar
     8    4    5 ar
     9    4   30 1
    10    5    6 ar
    11    5   31 1
    12    6    7 ar
    13    6    9 1
    14    7    8 ar
    15    7   32 1
    16    8   33 1
    17    9   13 1
    18    9   10 2
    19   10   11 1
    20   10   34 1
    21   11   12 2
    22   11   21 1
    23   12   13 1
    24   12   15 1
    25   13   14 1
    26   15   20 ar
    27   15   16 ar
    28   16   17 ar
    29   16   35 1
    30   17   18 ar
    31   17   36 1
    32   18   19 ar
    33   18   37 1
    34   19   20 ar
    35   19   38 1
    36   20   39 1
    37   21   26 ar
    38   21   22 ar
    39   22   23 ar
    40   22   40 1
    41   23   24 ar
    42   23   41 1
    43   24   25 ar
    44   25   26 ar
    45   25   42 1
    46   26   43 1
@<TRIPOS>MOLECULE
ZINC00022123
   39    42     0     0     0
SMALL
USER_CHARGES

@<TRIPOS>ATOM
      1 C1          7.8184    0.0738    3.0599 C.ar      1 <0>        -0.1204
      2 C2          7.5773   -0.6799    1.9249 C.ar      1 <0>        -0.1106
      3 C3          6.4797   -0.4097    1.1341 C.ar      1 <0>        -0.1021
      4 C4          5.6117    0.6271    1.4809 C.ar      1 <0>        -0.0168
      5 C5          5.8641    1.3874    2.6242 C.ar      1 <0>        -0.1232
      6 C6          6.9621    1.1029    3.4094 C.ar      1 <0>        -0.1113
      7 C7          4.4341    0.9226    0.6380 C.2       1 <0>         0.0654
      8 C8          4.0855    0.2598   -0.4985 C.2       1 <0>        -0.1485
      9 C9          2.9014    0.8491   -0.9894 C.2       1 <0>        -0.1063
     10 C10         2.5684    1.8788   -0.1207 C.2       1 <0>         0.0824
     11 N1          3.5110    1.9109    0.8715 N.pl3     1 <0>        -0.5347
     12 H1          3.5240    2.5303    1.6178 H         1 <0>         0.4172
     13 C11         1.4025    2.7752   -0.2415 C.ar      1 <0>        -0.0249
     14 C12         0.3750    2.7216    0.7036 C.ar      1 <0>        -0.0914
     15 C13        -0.7114    3.5627    0.5848 C.ar      1 <0>        -0.1149
     16 C14        -0.7861    4.4587   -0.4675 C.ar      1 <0>        -0.0958
     17 C15         0.2295    4.5217   -1.4047 C.ar      1 <0>        -0.1117
     18 C16         1.3210    3.6824   -1.3019 C.ar      1 <0>        -0.0102
     19 Cl1         2.5918    3.7585   -2.4821 Cl        1 <0>        -0.0516
     20 C17         2.1562    0.4469   -2.2043 C.ar      1 <0>         0.0451
     21 C18         0.8010    0.1055   -2.1363 C.ar      1 <0>        -0.1628
     22 C19         0.1442   -0.2578   -3.2930 C.ar      1 <0>         0.0999
     23 N2          0.7792   -0.2963   -4.4493 N.ar      1 <0>        -0.4891
     24 C20         2.0579    0.0126   -4.5563 C.ar      1 <0>         0.0995
     25 C21         2.7894    0.3922   -3.4509 C.ar      1 <0>        -0.1573
     26 H2          8.6787   -0.1423    3.6760 H         1 <0>         0.1247
     27 H3          8.2496   -1.4818    1.6578 H         1 <0>         0.1279
     28 H4          6.2922   -0.9992    0.2488 H         1 <0>         0.1288
     29 H5          5.1987    2.1936    2.8958 H         1 <0>         0.1145
     30 H6          7.1560    1.6874    4.2966 H         1 <0>         0.1249
     31 H7          4.6165   -0.5698   -0.9415 H         1 <0>         0.1452
     32 H8          0.4316    2.0234    1.5256 H         1 <0>         0.1326
     33 H9         -1.5061    3.5223    1.3151 H         1 <0>         0.1340
     34 H10        -1.6394    5.1149   -0.5549 H         1 <0>         0.1357
     35 H11         0.1665    5.2262   -2.2209 H         1 <0>         0.1375
     36 H12         0.2762    0.1304   -1.1927 H         1 <0>         0.1290
     37 H13        -0.9030   -0.5188   -3.2514 H         1 <0>         0.1531
     38 H14         2.5378   -0.0330   -5.5227 H         1 <0>         0.1540
     39 H15         3.8354    0.6439   -3.5458 H         1 <0>         0.1321
@<TRIPOS>BOND
     1    1    6 ar
     2    1    2 ar
     3    1   26 1
     4    2    3 ar
     5    2   27 1
     6    3    4 ar
     7    3   28 1
     8    4    5 ar
     9    4    7 1
    10    5    6 ar
    11    5   29 1
    12    6   30 1
    13    7   11 1
    14    7    8 2
    15    8    9 1
    16    8   31 1
    17    9   10 2
    18    9   20 1
    19   10   11 1
    20   10   13 1
    21   11   12 1
    22   13   18 ar
    23   13   14 ar
    24   14   15 ar
    25   14   32 1
    26   15   16 ar
    27   15   33 1
    28   16   17 ar
    29   16   34 1
    30   17   18 ar
    31   17   35 1
    32   18   19 1
    33   20   25 ar
    34   20   21 ar
    35   21   22 ar
    36   21   36 1
    37   22   23 ar
    38   22   37 1
    39   23   24 ar
    40   24   25 ar
    41   24   38 1
    42   25   39 1
@<TRIPOS>MOLECULE
ZINC00589119
   53    55     0     0     0
SMALL
USER_CHARGES

@<TRIPOS>ATOM
      1 C1         -6.2054    4.1897    7.4561 C.3       1 <0>        -0.1384
      2 C2         -5.4409    2.8650    7.4982 C.3       1 <0>         0.0115
      3 C3         -6.3023    1.7594    6.8846 C.3       1 <0>        -0.1388
      4 C4         -5.1144    2.5106    8.9503 C.3       1 <0>        -0.1392
      5 C5         -4.1612    2.9984    6.7136 C.2       1 <0>         0.1193
      6 C6         -3.0139    3.6787    7.1318 C.2       1 <0>        -0.2498
      7 C7         -2.0786    3.5637    6.1495 C.2       1 <0>         0.3236
      8 N1         -2.6335    2.8380    5.1408 N.pl3     1 <0>        -0.3533
      9 N2         -3.9362    2.4963    5.5262 N.2       1 <0>        -0.2702
     10 C8         -2.0108    2.4896    3.9345 C.ar      1 <0>         0.2195
     11 C9         -2.2787    1.2627    3.3423 C.ar      1 <0>        -0.1316
     12 C10        -1.6639    0.9225    2.1533 C.ar      1 <0>         0.0053
     13 C11        -0.7823    1.8023    1.5526 C.ar      1 <0>        -0.6715
     14 C12        -0.5095    3.0228    2.1426 C.ar      1 <0>         0.0075
     15 C13        -1.1252    3.3710    3.3289 C.ar      1 <0>        -0.1763
     16 S1          0.0005    1.3644    0.0360 S.o2      1 <0>         2.5020
     17 O1          0.0253   -0.0564    0.0378 O.2       1 <0>        -0.9331
     18 O2          1.2102    2.1100    0.0238 O.2       1 <0>        -0.9346
     19 C14        -1.1186    1.9681   -1.2576 C.3       1 <0>        -0.6498
     20 N3         -0.7892    4.0946    6.1716 N.am      1 <0>        -0.6575
     21 C15        -0.3679    4.7971    7.2418 C.2       1 <0>         0.7195
     22 O3         -1.1120    4.9679    8.1882 O.2       1 <0>        -0.5330
     23 N4          0.8782    5.3101    7.2631 N.am      1 <0>        -0.6731
     24 C16         1.2843    6.1182    8.3317 C.ar      1 <0>         0.1829
     25 C17         0.8191    5.8609    9.6145 C.ar      1 <0>        -0.1035
     26 C18         1.2214    6.6592   10.6674 C.ar      1 <0>        -0.0801
     27 C19         2.0871    7.7146   10.4462 C.ar      1 <0>        -0.1102
     28 C20         2.5533    7.9749    9.1696 C.ar      1 <0>        -0.0130
     29 C21         2.1580    7.1756    8.1119 C.ar      1 <0>        -0.0618
     30 Cl1         2.7483    7.4972    6.5113 Cl        1 <0>        -0.0419
     31 Cl2         3.6403    9.3005    8.8964 Cl        1 <0>        -0.0395
     32 H1         -6.4380    4.4422    6.4215 H         1 <0>         0.0567
     33 H2         -7.1310    4.0932    8.0235 H         1 <0>         0.0674
     34 H3         -5.5917    4.9774    7.8931 H         1 <0>         0.0620
     35 H4         -5.7577    0.8157    6.9146 H         1 <0>         0.0574
     36 H5         -7.2280    1.6629    7.4521 H         1 <0>         0.0621
     37 H6         -6.5350    2.0119    5.8501 H         1 <0>         0.0614
     38 H7         -4.5007    3.2983    9.3874 H         1 <0>         0.0641
     39 H8         -6.0400    2.4141    9.5177 H         1 <0>         0.0665
     40 H9         -4.5698    1.5669    8.9803 H         1 <0>         0.0576
     41 H10        -2.8899    4.1993    8.0699 H         1 <0>         0.1838
     42 H11        -2.9669    0.5750    3.8112 H         1 <0>         0.1477
     43 H12        -1.8716   -0.0319    1.6924 H         1 <0>         0.1546
     44 H13         0.1829    3.7061    1.6734 H         1 <0>         0.1548
     45 H14        -0.9146    4.3259    3.7873 H         1 <0>         0.1349
     46 H15        -2.0904    1.4858   -1.1515 H         1 <0>         0.1331
     47 H16        -1.2363    3.0475   -1.1616 H         1 <0>         0.1323
     48 H17        -0.7017    1.7338   -2.2371 H         1 <0>         0.1356
     49 H18        -0.1956    3.9583    5.4166 H         1 <0>         0.4113
     50 H19         1.4937    5.1195    6.5381 H         1 <0>         0.4139
     51 H20         0.1427    5.0372    9.7888 H         1 <0>         0.1586
     52 H21         0.8592    6.4591   11.6649 H         1 <0>         0.1466
     53 H22         2.3996    8.3373   11.2714 H         1 <0>         0.1467
@<TRIPOS>BOND
     1    1    2 1
     2    1   32 1
     3    1   33 1
     4    1   34 1
     5    2    3 1
     6    2    4 1
     7    2    5 1
     8    3   35 1
     9    3   36 1
    10    3   37 1
    11    4   38 1
    12    4   39 1
    13    4   40 1
    14    5    9 2
    15    5    6 1
    16    6    7 2
    17    6   41 1
    18    7    8 1
    19    7   20 1
    20    8    9 1
    21    8   10 1
    22   10   15 ar
    23   10   11 ar
    24   11   12 ar
    25   11   42 1
    26   12   13 ar
    27   12   43 1
    28   13   14 ar
    29   13   16 1
    30   14   15 ar
    31   14   44 1
    32   15   45 1
    33   16   17 2
    34   16   18 2
    35   16   19 1
    36   19   46 1
    37   19   47 1
    38   19   48 1
    39   20   21 am
    40   20   49 1
    41   21   22 2
    42   21   23 am
    43   23   24 1
    44   23   50 1
    45   24   29 ar
    46   24   25 ar
    47   25   26 ar
    48   25   51 1
    49   26   27 ar
    50   26   52 1
    51   27   28 ar
    52   27   53 1
    53   28   29 ar
    54   28   31 1
    55   29   30 1
@<TRIPOS>MOLECULE
ZINC00589120
   49    51     0     0     0
SMALL
USER_CHARGES

@<TRIPOS>ATOM
      1 C1          0.4584    9.1517    2.1074 C.3       1 <0>        -0.1385
      2 C2          1.2471    8.5424    0.9465 C.3       1 <0>         0.0110
      3 C3          2.6412    8.1407    1.4322 C.3       1 <0>        -0.1399
      4 C4          1.3758    9.5715   -0.1784 C.3       1 <0>        -0.1393
      5 C5          0.5239    7.3242    0.4325 C.2       1 <0>         0.1216
      6 C6         -0.6336    7.3315   -0.3511 C.2       1 <0>        -0.2461
      7 C7         -0.9701    6.0386   -0.6114 C.2       1 <0>         0.3223
      8 N1         -0.0499    5.2460    0.0026 N.pl3     1 <0>        -0.3512
      9 N2          0.8736    6.0811    0.6445 N.2       1 <0>        -0.2694
     10 C8         -0.0267    3.8447   -0.0102 C.ar      1 <0>         0.1711
     11 C9         -1.2167    3.1290    0.0023 C.ar      1 <0>        -0.1073
     12 C10        -1.1907    1.7484   -0.0152 C.ar      1 <0>        -0.0830
     13 C11         0.0190    1.0784   -0.0345 C.ar      1 <0>        -0.0619
     14 C12         1.2055    1.7881   -0.0470 C.ar      1 <0>        -0.0162
     15 C13         1.1859    3.1693   -0.0350 C.ar      1 <0>        -0.0522
     16 N3          2.4980    1.0672   -0.0729 N.pl3     1 <0>         0.0235
     17 O1          2.5160   -0.1506   -0.0832 O.2       1 <0>        -0.1451
     18 O2          3.5436    1.6918   -0.0840 O.3       1 <0>        -0.1464
     19 N4         -2.0598    5.6054   -1.3663 N.am      1 <0>        -0.6580
     20 C14        -2.8960    6.5054   -1.9205 C.2       1 <0>         0.7193
     21 O3         -2.7004    7.6951   -1.7623 O.2       1 <0>        -0.5310
     22 N5         -3.9491    6.0869   -2.6501 N.am      1 <0>        -0.6728
     23 C15        -4.8703    7.0166   -3.1469 C.ar      1 <0>         0.1819
     24 C16        -4.4410    8.2741   -3.5500 C.ar      1 <0>        -0.1032
     25 C17        -5.3516    9.1896   -4.0403 C.ar      1 <0>        -0.0797
     26 C18        -6.6905    8.8560   -4.1305 C.ar      1 <0>        -0.1095
     27 C19        -7.1229    7.6040   -3.7301 C.ar      1 <0>        -0.0131
     28 C20        -6.2149    6.6809   -3.2431 C.ar      1 <0>        -0.0614
     29 Cl1        -6.7558    5.1076   -2.7473 Cl        1 <0>        -0.0429
     30 Cl2        -8.8046    7.1891   -3.8456 Cl        1 <0>        -0.0391
     31 H1          0.3667    8.4185    2.9087 H         1 <0>         0.0569
     32 H2          0.9815   10.0328    2.4791 H         1 <0>         0.0680
     33 H3         -0.5348    9.4379    1.7613 H         1 <0>         0.0621
     34 H4          3.2030    7.7066    0.6052 H         1 <0>         0.0584
     35 H5          3.1643    9.0217    1.8040 H         1 <0>         0.0629
     36 H6          2.5495    7.4075    2.2336 H         1 <0>         0.0616
     37 H7          0.3826    9.8577   -0.5244 H         1 <0>         0.0640
     38 H8          1.8989   10.4526    0.1934 H         1 <0>         0.0671
     39 H9          1.9377    9.1374   -1.0054 H         1 <0>         0.0580
     40 H10        -1.1645    8.2078   -0.6928 H         1 <0>         0.1852
     41 H11        -2.1616    3.6517    0.0216 H         1 <0>         0.1440
     42 H12        -2.1159    1.1913   -0.0100 H         1 <0>         0.1622
     43 H13         0.0369   -0.0014   -0.0444 H         1 <0>         0.1640
     44 H14         2.1130    3.7231   -0.0451 H         1 <0>         0.1670
     45 H15        -2.2158    4.6564   -1.4926 H         1 <0>         0.4088
     46 H16        -4.0687    5.1414   -2.8310 H         1 <0>         0.4131
     47 H17        -3.3956    8.5363   -3.4798 H         1 <0>         0.1588
     48 H18        -5.0174   10.1678   -4.3534 H         1 <0>         0.1470
     49 H19        -7.4001    9.5741   -4.5140 H         1 <0>         0.1471
@<TRIPOS>BOND
     1    1    2 1
     2    1   31 1
     3    1   32 1
     4    1   33 1
     5    2    3 1
     6    2    4 1
     7    2    5 1
     8    3   34 1
     9    3   35 1
    10    3   36 1
    11    4   37 1
    12    4   38 1
    13    4   39 1
    14    5    9 2
    15    5    6 1
    16    6    7 2
    17    6   40 1
    18    7    8 1
    19    7   19 1
    20    8    9 1
    21    8   10 1
    22   10   15 ar
    23   10   11 ar
    24   11   12 ar
    25   11   41 1
    26   12   13 ar
    27   12   42 1
    28   13   14 ar
    29   13   43 1
    30   14   15 ar
    31   14   16 1
    32   15   44 1
    33   16   17 2
    34   16   18 1
    35   19   20 am
    36   19   45 1
    37   20   21 2
    38   20   22 am
    39   22   23 1
    40   22   46 1
    41   23   28 ar
    42   23   24 ar
    43   24   25 ar
    44   24   47 1
    45   25   26 ar
    46   25   48 1
    47   26   27 ar
    48   26   49 1
    49   27   28 ar
    50   27   30 1
    51   28   29 1
@<TRIPOS>MOLECULE
ZINC00598626
   42    45     0     0     0
SMALL
USER_CHARGES

@<TRIPOS>ATOM
      1 C1         -5.8617   10.6506    4.2003 C.3       1 <0>        -0.1476
      2 S1         -7.0420    9.9571    3.0102 S.3       1 <0>        -0.1060
      3 C2         -6.1707    8.6101    2.2813 C.ar      1 <0>        -0.0715
      4 C3         -6.7848    7.8339    1.3029 C.ar      1 <0>        -0.0970
      5 C4         -6.1063    6.7805    0.7315 C.ar      1 <0>        -0.0524
      6 C5         -4.8005    6.4912    1.1353 C.ar      1 <0>        -0.0275
      7 C6         -4.1887    7.2686    2.1217 C.ar      1 <0>        -0.0866
      8 C7         -4.8700    8.3242    2.6855 C.ar      1 <0>        -0.1309
      9 C8         -4.0703    5.3617    0.5246 C.2       1 <0>         0.2726
     10 N1         -2.7990    4.9790    0.8395 N.pl3     1 <0>        -0.5545
     11 H1         -2.2013    5.4055    1.5184 H         1 <0>         0.4300
     12 C9         -2.4933    3.8943    0.0463 C.2       1 <0>         0.0277
     13 C10        -3.6147    3.6486   -0.7284 C.2       1 <0>         0.0817
     14 N2         -4.5438    4.5615   -0.4047 N.2       1 <0>        -0.4569
     15 C11        -3.7625    2.5705   -1.7341 C.ar      1 <0>        -0.0205
     16 C12        -2.6695    2.1808   -2.5076 C.ar      1 <0>        -0.0725
     17 C13        -2.8109    1.1733   -3.4393 C.ar      1 <0>        -0.1515
     18 C14        -4.0389    0.5558   -3.6142 C.ar      1 <0>         0.1048
     19 C15        -5.1291    0.9431   -2.8517 C.ar      1 <0>        -0.1528
     20 C16        -4.9965    1.9463   -1.9142 C.ar      1 <0>        -0.0597
     21 F1         -4.1737   -0.4269   -4.5315 F         1 <0>        -0.1375
     22 C17        -1.2258    3.1408    0.0302 C.ar      1 <0>         0.0251
     23 C18        -1.2207    1.7389    0.0173 C.ar      1 <0>        -0.1445
     24 C19        -0.0126    1.0758    0.0080 C.ar      1 <0>         0.1074
     25 N3          1.1269    1.7422    0.0007 N.ar      1 <0>        -0.4796
     26 C20         1.1679    3.0616    0.0073 C.ar      1 <0>         0.1068
     27 C21         0.0082    3.8061    0.0220 C.ar      1 <0>        -0.1667
     28 H2         -5.5951    9.8892    4.9334 H         1 <0>         0.0855
     29 H3         -4.9651   10.9781    3.6741 H         1 <0>         0.0855
     30 H4         -6.3157   11.5012    4.7087 H         1 <0>         0.1123
     31 H5         -7.7942    8.0580    0.9912 H         1 <0>         0.1375
     32 H6         -6.5833    6.1785   -0.0277 H         1 <0>         0.1452
     33 H7         -3.1810    7.0444    2.4389 H         1 <0>         0.1215
     34 H8         -4.3959    8.9285    3.4447 H         1 <0>         0.1298
     35 H9         -1.7130    2.6645   -2.3748 H         1 <0>         0.1292
     36 H10        -1.9641    0.8683   -4.0362 H         1 <0>         0.1384
     37 H11        -6.0843    0.4590   -2.9919 H         1 <0>         0.1397
     38 H12        -5.8470    2.2480   -1.3209 H         1 <0>         0.1390
     39 H13        -2.1491    1.1871    0.0188 H         1 <0>         0.1404
     40 H14         0.0021   -0.0041    0.0020 H         1 <0>         0.1623
     41 H15         2.1236    3.5647    0.0009 H         1 <0>         0.1603
     42 H16         0.0494    4.8853    0.0274 H         1 <0>         0.1338
@<TRIPOS>BOND
     1    1    2 1
     2    1   28 1
     3    1   29 1
     4    1   30 1
     5    2    3 1
     6    3    8 ar
     7    3    4 ar
     8    4    5 ar
     9    4   31 1
    10    5    6 ar
    11    5   32 1
    12    6    7 ar
    13    6    9 1
    14    7    8 ar
    15    7   33 1
    16    8   34 1
    17    9   14 2
    18    9   10 1
    19   10   11 1
    20   10   12 1
    21   12   13 2
    22   12   22 1
    23   13   14 1
    24   13   15 1
    25   15   20 ar
    26   15   16 ar
    27   16   17 ar
    28   16   35 1
    29   17   18 ar
    30   17   36 1
    31   18   19 ar
    32   18   21 1
    33   19   20 ar
    34   19   37 1
    35   20   38 1
    36   22   27 ar
    37   22   23 ar
    38   23   24 ar
    39   23   39 1
    40   24   25 ar
    41   24   40 1
    42   25   26 ar
    43   26   27 ar
    44   26   41 1
    45   27   42 1
@<TRIPOS>MOLECULE
ZINC00602269
   48    51     0     0     0
SMALL
USER_CHARGES

@<TRIPOS>ATOM
      1 C1          2.6094   -2.4458   -0.6017 C.3       1 <0>         0.0435
      2 O1          1.3197   -1.8426   -0.4796 O.3       1 <0>        -0.2840
      3 C2          1.2785   -0.4915   -0.3924 C.ar      1 <0>         0.5124
      4 N1          2.4125    0.1909   -0.4235 N.ar      1 <0>        -0.5708
      5 C3          2.4174    1.5132   -0.3407 C.ar      1 <0>         0.1993
      6 C4          1.2177    2.1877   -0.2199 C.ar      1 <0>        -0.2789
      7 C5          0.0331    1.4397   -0.1896 C.ar      1 <0>         0.2980
      8 N2          0.1076    0.1100   -0.2781 N.ar      1 <0>        -0.5038
      9 C6         -1.2736    2.1105   -0.0681 C.2       1 <0>        -0.0035
     10 C7         -2.4825    1.6772   -0.5854 C.2       1 <0>         0.1166
     11 N3         -3.4141    2.5836   -0.2403 N.2       1 <0>        -0.4802
     12 C8         -2.8573    3.5441    0.4446 C.2       1 <0>         0.2028
     13 N4         -1.5377    3.2984    0.5779 N.pl3     1 <0>        -0.4313
     14 C9         -0.5649    4.1395    1.2796 C.3       1 <0>         0.1151
     15 C10        -0.9769    4.2807    2.7463 C.3       1 <0>        -0.1259
     16 C11        -2.3616    4.9265    2.8272 C.3       1 <0>        -0.1789
     17 C12        -2.3183    6.3094    2.1742 C.3       1 <0>         0.1025
     18 C13        -1.9063    6.1682    0.7075 C.3       1 <0>        -0.1384
     19 C14        -0.5216    5.5225    0.6266 C.3       1 <0>        -0.1268
     20 O2         -3.6116    6.9125    2.2497 O.3       1 <0>        -0.5646
     21 C15        -2.7086    0.4417   -1.3710 C.ar      1 <0>        -0.0138
     22 C16        -1.7324   -0.0119   -2.2578 C.ar      1 <0>        -0.0431
     23 C17        -1.9460   -1.1650   -2.9843 C.ar      1 <0>        -0.1530
     24 C18        -3.1320   -1.8672   -2.8408 C.ar      1 <0>         0.1051
     25 C19        -4.1069   -1.4179   -1.9646 C.ar      1 <0>        -0.1567
     26 C20        -3.9008   -0.2683   -1.2305 C.ar      1 <0>        -0.0579
     27 F1         -3.3385   -2.9934   -3.5579 F         1 <0>        -0.1402
     28 H1          3.0980   -2.0790   -1.5044 H         1 <0>         0.0647
     29 H2          3.2141   -2.1899    0.2683 H         1 <0>         0.0640
     30 H3          2.4999   -3.5286   -0.6623 H         1 <0>         0.1066
     31 H4          3.3495    2.0581   -0.3669 H         1 <0>         0.1769
     32 H5          1.1934    3.2652   -0.1509 H         1 <0>         0.1509
     33 H6         -3.3739    4.4042    0.8442 H         1 <0>         0.2317
     34 H7          0.4216    3.6795    1.2220 H         1 <0>         0.1144
     35 H8         -1.0077    3.2955    3.2115 H         1 <0>         0.0774
     36 H9         -0.2531    4.9065    3.2684 H         1 <0>         0.0919
     37 H10        -2.6551    5.0271    3.8721 H         1 <0>         0.0782
     38 H11        -3.0854    4.3006    2.3051 H         1 <0>         0.0870
     39 H12        -1.5945    6.9352    2.6963 H         1 <0>         0.0615
     40 H13        -1.8755    7.1535    0.2423 H         1 <0>         0.0838
     41 H14        -2.6301    5.5424    0.1854 H         1 <0>         0.0855
     42 H15         0.2022    6.1483    1.1487 H         1 <0>         0.0938
     43 H16        -0.2281    5.4219   -0.4183 H         1 <0>         0.0826
     44 H17        -3.9372    7.0332    3.1522 H         1 <0>         0.3827
     45 H18        -0.8095    0.5370   -2.3733 H         1 <0>         0.1161
     46 H19        -1.1893   -1.5189   -3.6687 H         1 <0>         0.1326
     47 H20        -5.0297   -1.9684   -1.8564 H         1 <0>         0.1374
     48 H21        -4.6615    0.0815   -0.5483 H         1 <0>         0.1369
@<TRIPOS>BOND
     1    1    2 1
     2    1   28 1
     3    1   29 1
     4    1   30 1
     5    2    3 1
     6    3    8 ar
     7    3    4 ar
     8    4    5 ar
     9    5    6 ar
    10    5   31 1
    11    6    7 ar
    12    6   32 1
    13    7    8 ar
    14    7    9 1
    15    9   13 1
    16    9   10 2
    17   10   11 1
    18   10   21 1
    19   11   12 2
    20   12   13 1
    21   12   33 1
    22   13   14 1
    23   14   19 1
    24   14   15 1
    25   14   34 1
    26   15   16 1
    27   15   35 1
    28   15   36 1
    29   16   17 1
    30   16   37 1
    31   16   38 1
    32   17   18 1
    33   17   20 1
    34   17   39 1
    35   18   19 1
    36   18   40 1
    37   18   41 1
    38   19   42 1
    39   19   43 1
    40   20   44 1
    41   21   26 ar
    42   21   22 ar
    43   22   23 ar
    44   22   45 1
    45   23   24 ar
    46   23   46 1
    47   24   25 ar
    48   24   27 1
    49   25   26 ar
    50   25   47 1
    51   26   48 1
@<TRIPOS>MOLECULE
ZINC00602269
   49    52     0     0     0
SMALL
USER_CHARGES

@<TRIPOS>ATOM
      1 C1          2.6094   -2.4458   -0.6017 C.3       1 <0>         0.0390
      2 O1          1.3197   -1.8426   -0.4796 O.3       1 <0>        -0.2792
      3 C2          1.2785   -0.4915   -0.3924 C.ar      1 <0>         0.5224
      4 N1          2.4125    0.1909   -0.4235 N.ar      1 <0>        -0.5479
      5 C3          2.4174    1.5132   -0.3407 C.ar      1 <0>         0.2144
      6 C4          1.2177    2.1877   -0.2199 C.ar      1 <0>        -0.2626
      7 C5          0.0331    1.4397   -0.1896 C.ar      1 <0>         0.2602
      8 N2          0.1076    0.1100   -0.2781 N.ar      1 <0>        -0.4987
      9 C6         -1.2736    2.1105   -0.0681 C.2       1 <0>         0.0825
     10 C7         -2.4825    1.6772   -0.5854 C.2       1 <0>         0.1519
     11 C8         -2.8573    3.5441    0.4446 C.cat     1 <0>         0.2818
     12 N3         -1.5377    3.2984    0.5779 N.pl3     1 <0>        -0.3816
     13 C9         -0.5649    4.1395    1.2796 C.3       1 <0>         0.1062
     14 C10        -0.9769    4.2807    2.7463 C.3       1 <0>        -0.1341
     15 C11        -2.3616    4.9265    2.8272 C.3       1 <0>        -0.1783
     16 C12        -2.3183    6.3094    2.1742 C.3       1 <0>         0.0942
     17 C13        -1.9063    6.1682    0.7075 C.3       1 <0>        -0.1370
     18 C14        -0.5216    5.5225    0.6266 C.3       1 <0>        -0.1354
     19 O2         -3.6116    6.9125    2.2497 O.3       1 <0>        -0.5644
     20 C15        -2.7086    0.4417   -1.3710 C.ar      1 <0>        -0.0777
     21 C16        -1.7324   -0.0119   -2.2578 C.ar      1 <0>        -0.0169
     22 C17        -1.9460   -1.1650   -2.9843 C.ar      1 <0>        -0.1479
     23 C18        -3.1320   -1.8672   -2.8408 C.ar      1 <0>         0.1444
     24 C19        -4.1069   -1.4179   -1.9646 C.ar      1 <0>        -0.1504
     25 C20        -3.9008   -0.2683   -1.2305 C.ar      1 <0>        -0.0593
     26 F1         -3.3385   -2.9934   -3.5579 F         1 <0>        -0.1229
     27 H1          3.0980   -2.0790   -1.5044 H         1 <0>         0.0705
     28 H2          3.2141   -2.1899    0.2683 H         1 <0>         0.0700
     29 H3          2.4999   -3.5286   -0.6623 H         1 <0>         0.1144
     30 H4          3.3495    2.0581   -0.3669 H         1 <0>         0.1892
     31 H5          1.1934    3.2652   -0.1509 H         1 <0>         0.1575
     32 H6         -3.3739    4.4042    0.8442 H         1 <0>         0.2792
     33 H7          0.4216    3.6795    1.2220 H         1 <0>         0.1406
     34 H8         -1.0077    3.2955    3.2115 H         1 <0>         0.0888
     35 H9         -0.2531    4.9065    3.2684 H         1 <0>         0.1153
     36 H10        -2.6551    5.0271    3.8721 H         1 <0>         0.0960
     37 H11        -3.0854    4.3006    2.3051 H         1 <0>         0.0675
     38 H12        -1.5945    6.9352    2.6963 H         1 <0>         0.0760
     39 H13        -1.8755    7.1535    0.2423 H         1 <0>         0.1016
     40 H14        -2.6301    5.5424    0.1854 H         1 <0>         0.0665
     41 H15         0.2022    6.1483    1.1487 H         1 <0>         0.1174
     42 H16        -0.2281    5.4219   -0.4183 H         1 <0>         0.0941
     43 H17        -3.9372    7.0332    3.1522 H         1 <0>         0.3919
     44 H18        -0.8095    0.5370   -2.3733 H         1 <0>         0.1267
     45 H19        -1.1893   -1.5189   -3.6687 H         1 <0>         0.1477
     46 H20        -5.0297   -1.9684   -1.8564 H         1 <0>         0.1512
     47 H21        -4.6615    0.0815   -0.5483 H         1 <0>         0.1365
     48 N4         -3.4148    2.5836   -0.2405 N.pl3     1 <0>        -0.4837
     49 H22        -4.4118    2.5281   -0.4795 H         1 <0>         0.4827
@<TRIPOS>BOND
     1    1    2 1
     2    1   27 1
     3    1   28 1
     4    1   29 1
     5    2    3 1
     6    3    8 ar
     7    3    4 ar
     8    4    5 ar
     9    5    6 ar
    10    5   30 1
    11    6    7 ar
    12    6   31 1
    13    7    8 ar
    14    7    9 1
    15    9   12 1
    16    9   10 2
    17   10   20 1
    18   10   48 1
    19   11   12 1
    20   11   32 1
    21   11   48 2
    22   12   13 1
    23   13   18 1
    24   13   14 1
    25   13   33 1
    26   14   15 1
    27   14   34 1
    28   14   35 1
    29   15   16 1
    30   15   36 1
    31   15   37 1
    32   16   17 1
    33   16   19 1
    34   16   38 1
    35   17   18 1
    36   17   39 1
    37   17   40 1
    38   18   41 1
    39   18   42 1
    40   19   43 1
    41   20   25 ar
    42   20   21 ar
    43   21   22 ar
    44   21   44 1
    45   22   23 ar
    46   22   45 1
    47   23   24 ar
    48   23   26 1
    49   24   25 ar
    50   24   46 1
    51   25   47 1
    52   48   49 1
@<TRIPOS>MOLECULE
ZINC00602739
   49    51     0     0     0
SMALL
USER_CHARGES

@<TRIPOS>ATOM
      1 C1          0.4367    9.1586    2.1070 C.3       1 <0>        -0.1379
      2 C2          1.2279    8.5521    0.9463 C.3       1 <0>         0.0127
      3 C3          2.6234    8.1557    1.4324 C.3       1 <0>        -0.1378
      4 C4          1.3529    9.5816   -0.1786 C.3       1 <0>        -0.1383
      5 C5          0.5093    7.3312    0.4324 C.2       1 <0>         0.1098
      6 C6         -0.6480    7.3340   -0.3514 C.2       1 <0>        -0.2567
      7 C7         -0.9798    6.0398   -0.6113 C.2       1 <0>         0.3237
      8 N1         -0.0565    5.2507    0.0026 N.pl3     1 <0>        -0.3420
      9 N2          0.8637    6.0894    0.6446 N.2       1 <0>        -0.2716
     10 C8         -0.0279    3.8495   -0.0102 C.ar      1 <0>         0.2068
     11 C9         -1.2160    3.1298    0.0023 C.ar      1 <0>        -0.2130
     12 C10        -1.1891    1.7487   -0.0152 C.ar      1 <0>        -0.0413
     13 C11         0.0190    1.0785   -0.0345 C.ar      1 <0>        -0.2030
     14 C12         1.2108    1.7924   -0.0471 C.ar      1 <0>         0.2419
     15 C13         1.1866    3.1803   -0.0349 C.ar      1 <0>        -0.1907
     16 N3          2.4318    1.1146   -0.0715 N.pl3     1 <0>        -0.8711
     17 N4         -2.0682    5.6024   -1.3656 N.am      1 <0>        -0.6548
     18 C14        -2.9079    6.4992   -1.9199 C.2       1 <0>         0.7185
     19 O1         -2.7165    7.6896   -1.7622 O.2       1 <0>        -0.5352
     20 N5         -3.9597    6.0766   -2.6489 N.am      1 <0>        -0.6741
     21 C15        -4.8844    7.0027   -3.1458 C.ar      1 <0>         0.1850
     22 C16        -4.4597    8.2617   -3.5495 C.ar      1 <0>        -0.1038
     23 C17        -5.3738    9.1737   -4.0399 C.ar      1 <0>        -0.0802
     24 C18        -6.7115    8.8352   -4.1295 C.ar      1 <0>        -0.1115
     25 C19        -7.1393    7.5819   -3.7283 C.ar      1 <0>        -0.0130
     26 C20        -6.2278    6.6622   -3.2413 C.ar      1 <0>        -0.0625
     27 Cl1        -6.7629    5.0872   -2.7446 Cl        1 <0>        -0.0429
     28 Cl2        -8.8196    7.1609   -3.8430 Cl        1 <0>        -0.0409
     29 H1          0.3476    8.4252    2.9085 H         1 <0>         0.0564
     30 H2          0.9564   10.0417    2.4788 H         1 <0>         0.0654
     31 H3         -0.5575    9.4410    1.7608 H         1 <0>         0.0616
     32 H4          3.1870    7.7237    0.6055 H         1 <0>         0.0563
     33 H5          3.1431    9.0388    1.8041 H         1 <0>         0.0602
     34 H6          2.5343    7.4224    2.2338 H         1 <0>         0.0610
     35 H7          0.3587    9.8640   -0.5249 H         1 <0>         0.0636
     36 H8          1.8726   10.4647    0.1931 H         1 <0>         0.0645
     37 H9          1.9165    9.1495   -1.0055 H         1 <0>         0.0567
     38 H10        -1.1820    8.2082   -0.6935 H         1 <0>         0.1802
     39 H11        -2.1619    3.6506    0.0219 H         1 <0>         0.1209
     40 H12        -2.1143    1.1916   -0.0099 H         1 <0>         0.1340
     41 H13         0.0368   -0.0014   -0.0443 H         1 <0>         0.1282
     42 H14         2.1116    3.7378   -0.0450 H         1 <0>         0.1334
     43 H15         2.4480    0.1447   -0.0797 H         1 <0>         0.4026
     44 H16         3.2635    1.6136   -0.0803 H         1 <0>         0.4018
     45 H17        -2.2209    4.6528   -1.4914 H         1 <0>         0.4124
     46 H18        -4.0760    5.1306   -2.8294 H         1 <0>         0.4132
     47 H19        -3.4153    8.5277   -3.4799 H         1 <0>         0.1589
     48 H20        -5.0432   10.1529   -4.3535 H         1 <0>         0.1461
     49 H21        -7.4239    9.5506   -4.5130 H         1 <0>         0.1461
@<TRIPOS>BOND
     1    1    2 1
     2    1   29 1
     3    1   30 1
     4    1   31 1
     5    2    3 1
     6    2    4 1
     7    2    5 1
     8    3   32 1
     9    3   33 1
    10    3   34 1
    11    4   35 1
    12    4   36 1
    13    4   37 1
    14    5    9 2
    15    5    6 1
    16    6    7 2
    17    6   38 1
    18    7    8 1
    19    7   17 1
    20    8    9 1
    21    8   10 1
    22   10   15 ar
    23   10   11 ar
    24   11   12 ar
    25   11   39 1
    26   12   13 ar
    27   12   40 1
    28   13   14 ar
    29   13   41 1
    30   14   15 ar
    31   14   16 1
    32   15   42 1
    33   16   43 1
    34   16   44 1
    35   17   18 am
    36   17   45 1
    37   18   19 2
    38   18   20 am
    39   20   21 1
    40   20   46 1
    41   21   26 ar
    42   21   22 ar
    43   22   23 ar
    44   22   47 1
    45   23   24 ar
    46   23   48 1
    47   24   25 ar
    48   24   49 1
    49   25   26 ar
    50   25   28 1
    51   26   27 1
@<TRIPOS>MOLECULE
ZINC00833184
   44    47     0     0     0
SMALL
USER_CHARGES

@<TRIPOS>ATOM
      1 C1         -0.2198    1.3238   -0.8161 C.3       1 <0>        -0.6496
      2 S1          0.8043    1.0095    0.6479 S.o2      1 <0>         2.4996
      3 O1          0.9664   -0.3890    0.8408 O.2       1 <0>        -0.9334
      4 O2          1.9300    1.8767    0.6530 O.2       1 <0>        -0.9354
      5 C2         -0.1785    1.5404    2.0105 C.ar      1 <0>        -0.6542
      6 C3         -0.0902    2.8475    2.4555 C.ar      1 <0>        -0.0172
      7 C4         -0.8606    3.2708    3.5188 C.ar      1 <0>        -0.1327
      8 C5         -1.7226    2.3745    4.1526 C.ar      1 <0>         0.0400
      9 C6         -1.8029    1.0560    3.7020 C.ar      1 <0>        -0.0973
     10 C7         -1.0310    0.6468    2.6343 C.ar      1 <0>        -0.0182
     11 C8         -2.5465    2.8197    5.2966 C.2       1 <0>         0.2500
     12 N1         -2.5534    4.0777    5.8238 N.pl3     1 <0>        -0.5494
     13 H1         -2.0089    4.8557    5.5104 H         1 <0>         0.4323
     14 C9         -3.4504    4.0756    6.8682 C.2       1 <0>         0.0399
     15 C10        -3.9653    2.7913    6.9381 C.2       1 <0>         0.0802
     16 N2         -3.3929    2.0680    5.9636 N.2       1 <0>        -0.4457
     17 C11        -4.9720    2.3053    7.9107 C.ar      1 <0>        -0.0219
     18 C12        -4.8837    2.6749    9.2525 C.ar      1 <0>        -0.0692
     19 C13        -5.8259    2.2234   10.1533 C.ar      1 <0>        -0.1511
     20 C14        -6.8532    1.3961    9.7287 C.ar      1 <0>         0.1067
     21 C15        -6.9421    1.0219    8.3975 C.ar      1 <0>        -0.1526
     22 C16        -6.0075    1.4722    7.4882 C.ar      1 <0>        -0.0597
     23 F1         -7.7708    0.9527   10.6155 F         1 <0>        -0.1368
     24 C17        -3.7951    5.2147    7.7394 C.ar      1 <0>         0.0211
     25 C18        -5.1323    5.5321    8.0153 C.ar      1 <0>        -0.1418
     26 C19        -5.4082    6.6025    8.8386 C.ar      1 <0>         0.1083
     27 N3         -4.4350    7.3292    9.3555 N.ar      1 <0>        -0.4778
     28 C20        -3.1630    7.0685    9.1179 C.ar      1 <0>         0.1072
     29 C21        -2.7950    6.0140    8.3103 C.ar      1 <0>        -0.1644
     30 H2         -1.1459    0.7539   -0.7407 H         1 <0>         0.1328
     31 H3         -0.4513    2.3872   -0.8760 H         1 <0>         0.1317
     32 H4          0.3226    1.0190   -1.7111 H         1 <0>         0.1349
     33 H5          0.5802    3.5389    1.9668 H         1 <0>         0.1493
     34 H6         -0.7937    4.2925    3.8627 H         1 <0>         0.1290
     35 H7         -2.4677    0.3574    4.1884 H         1 <0>         0.1497
     36 H8         -1.0920   -0.3733    2.2849 H         1 <0>         0.1512
     37 H9         -4.0810    3.3163    9.5852 H         1 <0>         0.1290
     38 H10        -5.7603    2.5118   11.1921 H         1 <0>         0.1390
     39 H11        -7.7441    0.3764    8.0714 H         1 <0>         0.1402
     40 H12        -6.0774    1.1797    6.4510 H         1 <0>         0.1377
     41 H13        -5.9338    4.9446    7.5925 H         1 <0>         0.1401
     42 H14        -6.4351    6.8530    9.0603 H         1 <0>         0.1627
     43 H15        -2.3999    7.6905    9.5621 H         1 <0>         0.1613
     44 H16        -1.7523    5.8064    8.1205 H         1 <0>         0.1346
@<TRIPOS>BOND
     1    1    2 1
     2    1   30 1
     3    1   31 1
     4    1   32 1
     5    2    3 2
     6    2    4 2
     7    2    5 1
     8    5   10 ar
     9    5    6 ar
    10    6    7 ar
    11    6   33 1
    12    7    8 ar
    13    7   34 1
    14    8    9 ar
    15    8   11 1
    16    9   10 ar
    17    9   35 1
    18   10   36 1
    19   11   16 2
    20   11   12 1
    21   12   13 1
    22   12   14 1
    23   14   15 2
    24   14   24 1
    25   15   16 1
    26   15   17 1
    27   17   22 ar
    28   17   18 ar
    29   18   19 ar
    30   18   37 1
    31   19   20 ar
    32   19   38 1
    33   20   21 ar
    34   20   23 1
    35   21   22 ar
    36   21   39 1
    37   22   40 1
    38   24   29 ar
    39   24   25 ar
    40   25   26 ar
    41   25   41 1
    42   26   27 ar
    43   26   42 1
    44   27   28 ar
    45   28   29 ar
    46   28   43 1
    47   29   44 1
@<TRIPOS>MOLECULE
ZINC00841240
   43    46     0     0     0
SMALL
USER_CHARGES

@<TRIPOS>ATOM
      1 C1          7.6924    1.4500    0.8567 C.3       1 <0>        -0.1458
      2 S1          6.6919   -0.0586    0.9744 S.3       1 <0>        -0.1126
      3 C2          5.0396    0.5064    0.7398 C.ar      1 <0>        -0.0835
      4 C3          3.9852   -0.4007    0.7680 C.ar      1 <0>        -0.0903
      5 C4          2.6921    0.0380    0.5844 C.ar      1 <0>        -0.0808
      6 C5          2.4404    1.3950    0.3703 C.ar      1 <0>        -0.0223
      7 C6          3.5015    2.3025    0.3373 C.ar      1 <0>        -0.1012
      8 C7          4.7920    1.8585    0.5263 C.ar      1 <0>        -0.1253
      9 C8          1.0546    1.8688    0.1732 C.2       1 <0>         0.0677
     10 C9         -0.0594    1.0867    0.1773 C.2       1 <0>        -0.1469
     11 C10        -1.1706    1.9260   -0.0513 C.2       1 <0>        -0.1151
     12 C11        -0.6847    3.2191   -0.1808 C.2       1 <0>         0.0878
     13 N1          0.6776    3.1702   -0.0449 N.pl3     1 <0>        -0.5390
     14 H1          1.2774    3.9309   -0.0943 H         1 <0>         0.4176
     15 C12        -1.4908    4.4301   -0.4273 C.ar      1 <0>        -0.0390
     16 C13        -2.4746    4.4279   -1.4195 C.ar      1 <0>        -0.0591
     17 C14        -3.2283    5.5609   -1.6416 C.ar      1 <0>        -0.1482
     18 C15        -3.0042    6.7040   -0.8904 C.ar      1 <0>         0.1079
     19 C16        -2.0262    6.7139    0.0918 C.ar      1 <0>        -0.1500
     20 C17        -1.2696    5.5854    0.3267 C.ar      1 <0>        -0.0804
     21 F1         -3.7423    7.8127   -1.1160 F         1 <0>        -0.1354
     22 C18        -2.5883    1.5062   -0.1344 C.ar      1 <0>         0.0387
     23 C19        -3.5574    2.0782    0.6973 C.ar      1 <0>        -0.1599
     24 C20        -4.8667    1.6612    0.5834 C.ar      1 <0>         0.1009
     25 N2         -5.2079    0.7298   -0.2872 N.ar      1 <0>        -0.4888
     26 C21        -4.3247    0.1612   -1.0863 C.ar      1 <0>         0.1002
     27 C22        -2.9947    0.5224   -1.0426 C.ar      1 <0>        -0.1643
     28 H2          7.5493    1.9053   -0.1232 H         1 <0>         0.0847
     29 H3          7.3844    2.1516    1.6319 H         1 <0>         0.0846
     30 H4          8.7447    1.1994    0.9907 H         1 <0>         0.1115
     31 H5          4.1805   -1.4499    0.9336 H         1 <0>         0.1344
     32 H6          1.8741   -0.6667    0.6057 H         1 <0>         0.1359
     33 H7          3.3103    3.3518    0.1675 H         1 <0>         0.1187
     34 H8          5.6125    2.5604    0.5049 H         1 <0>         0.1263
     35 H9         -0.0874    0.0171    0.3242 H         1 <0>         0.1466
     36 H10        -2.6468    3.5393   -2.0088 H         1 <0>         0.1349
     37 H11        -3.9917    5.5591   -2.4055 H         1 <0>         0.1409
     38 H12        -1.8561    7.6076    0.6739 H         1 <0>         0.1402
     39 H13        -0.5074    5.5946    1.0917 H         1 <0>         0.1320
     40 H14        -3.2845    2.8377    1.4151 H         1 <0>         0.1311
     41 H15        -5.6225    2.0997    1.2181 H         1 <0>         0.1544
     42 H16        -4.6480   -0.5974   -1.7837 H         1 <0>         0.1557
     43 H17        -2.2775    0.0532   -1.6997 H         1 <0>         0.1354
@<TRIPOS>BOND
     1    1    2 1
     2    1   28 1
     3    1   29 1
     4    1   30 1
     5    2    3 1
     6    3    8 ar
     7    3    4 ar
     8    4    5 ar
     9    4   31 1
    10    5    6 ar
    11    5   32 1
    12    6    7 ar
    13    6    9 1
    14    7    8 ar
    15    7   33 1
    16    8   34 1
    17    9   13 1
    18    9   10 2
    19   10   11 1
    20   10   35 1
    21   11   12 2
    22   11   22 1
    23   12   13 1
    24   12   15 1
    25   13   14 1
    26   15   20 ar
    27   15   16 ar
    28   16   17 ar
    29   16   36 1
    30   17   18 ar
    31   17   37 1
    32   18   19 ar
    33   18   21 1
    34   19   20 ar
    35   19   38 1
    36   20   39 1
    37   22   27 ar
    38   22   23 ar
    39   23   24 ar
    40   23   40 1
    41   24   25 ar
    42   24   41 1
    43   25   26 ar
    44   26   27 ar
    45   26   42 1
    46   27   43 1
@<TRIPOS>MOLECULE
ZINC01489189
   50    54     0     0     0
SMALL
USER_CHARGES

@<TRIPOS>ATOM
      1 C1         -0.0167    1.3781    0.0096 C.ar      1 <0>        -0.1057
      2 C2          1.1709    2.0855    0.0021 C.ar      1 <0>        -0.1217
      3 C3          2.3773    1.4107   -0.0136 C.ar      1 <0>        -0.0933
      4 C4          2.3960    0.0285   -0.0217 C.ar      1 <0>        -0.0986
      5 C5          1.2084   -0.6789   -0.0136 C.ar      1 <0>        -0.0934
      6 C6          0.0021   -0.0041    0.0020 C.ar      1 <0>        -0.1215
      7 C7          3.7112   -0.7071   -0.0387 C.3       1 <0>         0.0994
      8 O1          4.1134   -0.9324   -1.3913 O.3       1 <0>        -0.2876
      9 C8          5.2857   -1.5882   -1.5843 C.ar      1 <0>         0.2592
     10 C9          6.0494   -2.0151   -0.5091 C.ar      1 <0>        -0.3509
     11 C10         7.2462   -2.6846   -0.7489 C.ar      1 <0>         0.4802
     12 N1          7.6695   -2.9216   -1.9791 N.ar      1 <0>        -0.5868
     13 C11         6.9760   -2.5339   -3.0456 C.ar      1 <0>         0.3777
     14 C12         5.7569   -1.8588   -2.8781 C.ar      1 <0>        -0.2088
     15 C13         5.2507   -1.5681   -4.2267 C.2       1 <0>        -0.0776
     16 C14         6.1773   -2.0860   -5.1085 C.2       1 <0>         0.1169
     17 N2          7.2031   -2.6603   -4.3963 N.pl3     1 <0>        -0.5650
     18 H1          7.9770   -3.0927   -4.7901 H         1 <0>         0.4231
     19 C15         6.0824   -2.0313   -6.5804 C.ar      1 <0>        -0.0419
     20 C16         5.7054   -0.8453   -7.2152 C.ar      1 <0>        -0.0580
     21 C17         5.6241   -0.7987   -8.5908 C.ar      1 <0>        -0.1483
     22 C18         5.9043   -1.9286   -9.3431 C.ar      1 <0>         0.1095
     23 C19         6.2733   -3.1097   -8.7186 C.ar      1 <0>        -0.1500
     24 C20         6.3636   -3.1669   -7.3439 C.ar      1 <0>        -0.0762
     25 F1          5.8179   -1.8784  -10.6904 F         1 <0>        -0.1354
     26 C21         3.9959   -0.8659   -4.5703 C.ar      1 <0>         0.0432
     27 C22         3.8110    0.4819   -4.2376 C.ar      1 <0>        -0.1470
     28 C23         2.6269    1.0983   -4.5809 C.ar      1 <0>         0.1011
     29 N3          1.6725    0.4335   -5.2051 N.ar      1 <0>        -0.4852
     30 C24         1.8038   -0.8384   -5.5329 C.ar      1 <0>         0.0992
     31 C25         2.9567   -1.5316   -5.2323 C.ar      1 <0>        -0.1569
     32 N4          8.0128   -3.1138    0.3283 N.pl3     1 <0>        -0.8447
     33 H2         -0.9592    1.9054    0.0170 H         1 <0>         0.1246
     34 H3          1.1563    3.1654    0.0081 H         1 <0>         0.1257
     35 H4          3.3051    1.9634   -0.0195 H         1 <0>         0.1234
     36 H5          1.2231   -1.7587   -0.0199 H         1 <0>         0.1223
     37 H6         -0.9258   -0.5567    0.0079 H         1 <0>         0.1250
     38 H7          4.4678   -0.1105    0.4708 H         1 <0>         0.0755
     39 H8          3.5989   -1.6640    0.4711 H         1 <0>         0.0746
     40 H9          5.7196   -1.8309    0.5027 H         1 <0>         0.1396
     41 H10         5.4821    0.0344   -6.6298 H         1 <0>         0.1359
     42 H11         5.3374    0.1190   -9.0829 H         1 <0>         0.1413
     43 H12         6.4901   -3.9871   -9.3098 H         1 <0>         0.1410
     44 H13         6.6508   -4.0878   -6.8583 H         1 <0>         0.1345
     45 H14         4.5857    1.0307   -3.7229 H         1 <0>         0.1300
     46 H15         2.4763    2.1384   -4.3320 H         1 <0>         0.1518
     47 H16         0.9967   -1.3429   -6.0433 H         1 <0>         0.1529
     48 H17         3.0572   -2.5721   -5.5036 H         1 <0>         0.1303
     49 H18         7.7121   -2.9457    1.2350 H         1 <0>         0.4107
     50 H19         8.8485   -3.5812    0.1732 H         1 <0>         0.4059
@<TRIPOS>BOND
     1    1    6 ar
     2    1    2 ar
     3    1   33 1
     4    2    3 ar
     5    2   34 1
     6    3    4 ar
     7    3   35 1
     8    4    5 ar
     9    4    7 1
    10    5    6 ar
    11    5   36 1
    12    6   37 1
    13    7    8 1
    14    7   38 1
    15    7   39 1
    16    8    9 1
    17    9   14 ar
    18    9   10 ar
    19   10   11 ar
    20   10   40 1
    21   11   12 ar
    22   11   32 1
    23   12   13 ar
    24   13   17 1
    25   13   14 ar
    26   14   15 1
    27   15   16 2
    28   15   26 1
    29   16   17 1
    30   16   19 1
    31   17   18 1
    32   19   24 ar
    33   19   20 ar
    34   20   21 ar
    35   20   41 1
    36   21   22 ar
    37   21   42 1
    38   22   23 ar
    39   22   25 1
    40   23   24 ar
    41   23   43 1
    42   24   44 1
    43   26   31 ar
    44   26   27 ar
    45   27   28 ar
    46   27   45 1
    47   28   29 ar
    48   28   46 1
    49   29   30 ar
    50   30   31 ar
    51   30   47 1
    52   31   48 1
    53   32   49 1
    54   32   50 1
@<TRIPOS>MOLECULE
ZINC03794499
   55    59     0     0     0
SMALL
USER_CHARGES

@<TRIPOS>ATOM
      1 C1         -2.2133    4.2959    0.9185 C.ar      1 <0>        -0.0885
      2 C2         -1.0855    3.5331    0.6959 C.ar      1 <0>        -0.0760
      3 C3         -1.2111    2.1692    0.4274 C.ar      1 <0>         0.0339
      4 C4         -2.4788    1.5872    0.3807 C.ar      1 <0>        -0.1110
      5 C5         -3.5983    2.3603    0.6098 C.ar      1 <0>        -0.0840
      6 C6         -3.4668    3.7117    0.8760 C.ar      1 <0>        -0.1610
      7 C7         -4.6944    4.5511    1.1201 C.3       1 <0>         0.0492
      8 C8         -4.2102    6.0559   -0.7152 C.3       1 <0>        -0.0437
      9 C9         -4.7214    6.5549   -2.0693 C.3       1 <0>         0.0359
     10 O1         -6.0197    7.1305   -1.9004 O.3       1 <0>        -0.3563
     11 C10        -6.9847    6.2251   -1.3578 C.3       1 <0>         0.0345
     12 C11        -6.4964    5.7227    0.0034 C.3       1 <0>        -0.0392
     13 C12        -0.0068    1.3459    0.1874 C.2       1 <0>         0.2321
     14 N1         -0.0043    0.0090   -0.0835 N.pl3     1 <0>        -0.5499
     15 H1         -0.8062   -0.5846   -0.1512 H         1 <0>         0.4314
     16 C13         1.3092   -0.3700   -0.2463 C.2       1 <0>         0.0529
     17 C14         2.0708    0.7730   -0.0648 C.2       1 <0>         0.0845
     18 N2          1.2309    1.7866    0.1955 N.2       1 <0>        -0.4428
     19 C15         3.5478    0.8606   -0.1446 C.ar      1 <0>        -0.0296
     20 C16         4.3396   -0.1316    0.4327 C.ar      1 <0>        -0.0677
     21 C17         5.7142   -0.0478    0.3520 C.ar      1 <0>        -0.1503
     22 C18         6.3085    1.0249   -0.2930 C.ar      1 <0>         0.1120
     23 C19         5.5261    2.0159   -0.8637 C.ar      1 <0>        -0.1531
     24 C20         4.1506    1.9385   -0.7924 C.ar      1 <0>        -0.0594
     25 F1          7.6552    1.1050   -0.3654 F         1 <0>        -0.1338
     26 C21         1.8067   -1.7240   -0.5536 C.ar      1 <0>         0.0131
     27 C22         2.7528   -1.9314   -1.5669 C.ar      1 <0>        -0.1405
     28 C23         3.1934   -3.2133   -1.8168 C.ar      1 <0>         0.1109
     29 N3          2.7295   -4.2370   -1.1244 N.ar      1 <0>        -0.4737
     30 C24         1.8348   -4.0873   -0.1655 C.ar      1 <0>         0.1090
     31 C25         1.3426   -2.8405    0.1556 C.ar      1 <0>        -0.1640
     32 H2         -2.1176    5.3514    1.1261 H         1 <0>         0.1392
     33 H3         -0.1077    3.9904    0.7291 H         1 <0>         0.1518
     34 H4         -2.5830    0.5333    0.1690 H         1 <0>         0.1312
     35 H5         -4.5796    1.9104    0.5777 H         1 <0>         0.1375
     36 H6         -5.4735    3.9338    1.5674 H         1 <0>         0.1383
     37 H7         -4.4464    5.3695    1.7960 H         1 <0>         0.1398
     38 H8         -4.0989    6.9000   -0.0346 H         1 <0>         0.1412
     39 H9         -3.2460    5.5653   -0.8485 H         1 <0>         0.1403
     40 H10        -4.7818    5.7189   -2.7661 H         1 <0>         0.0797
     41 H11        -4.0379    7.3076   -2.4622 H         1 <0>         0.1417
     42 H12        -7.1109    5.3795   -2.0340 H         1 <0>         0.0802
     43 H13        -7.9383    6.7387   -1.2356 H         1 <0>         0.1420
     44 H14        -7.2011    4.9889    0.3947 H         1 <0>         0.1411
     45 H15        -6.4218    6.5610    0.6961 H         1 <0>         0.1413
     46 H16         3.8773   -0.9660    0.9392 H         1 <0>         0.1292
     47 H17         6.3282   -0.8175    0.7959 H         1 <0>         0.1410
     48 H18         5.9938    2.8505   -1.3648 H         1 <0>         0.1413
     49 H19         3.5416    2.7116   -1.2371 H         1 <0>         0.1359
     50 H20         3.1336   -1.0992   -2.1403 H         1 <0>         0.1407
     51 H21         3.9249   -3.3832   -2.5929 H         1 <0>         0.1647
     52 H22         1.4832   -4.9539    0.3748 H         1 <0>         0.1626
     53 H23         0.6109   -2.7256    0.9416 H         1 <0>         0.1339
     54 N4         -5.1783    5.0785   -0.1741 N.4       1 <0>        -0.3951
     55 H24        -5.2734    4.3002   -0.8371 H         1 <0>         0.4256
@<TRIPOS>BOND
     1    1    6 ar
     2    1    2 ar
     3    1   32 1
     4    2    3 ar
     5    2   33 1
     6    3    4 ar
     7    3   13 1
     8    4    5 ar
     9    4   34 1
    10    5    6 ar
    11    5   35 1
    12    6    7 1
    13    7   36 1
    14    7   37 1
    15    7   54 1
    16    8    9 1
    17    8   38 1
    18    8   39 1
    19    8   54 1
    20    9   10 1
    21    9   40 1
    22    9   41 1
    23   10   11 1
    24   11   12 1
    25   11   42 1
    26   11   43 1
    27   12   44 1
    28   12   45 1
    29   12   54 1
    30   13   18 2
    31   13   14 1
    32   14   15 1
    33   14   16 1
    34   16   17 2
    35   16   26 1
    36   17   18 1
    37   17   19 1
    38   19   24 ar
    39   19   20 ar
    40   20   21 ar
    41   20   46 1
    42   21   22 ar
    43   21   47 1
    44   22   23 ar
    45   22   25 1
    46   23   24 ar
    47   23   48 1
    48   24   49 1
    49   26   31 ar
    50   26   27 ar
    51   27   28 ar
    52   27   50 1
    53   28   29 ar
    54   28   51 1
    55   29   30 ar
    56   30   31 ar
    57   30   52 1
    58   31   53 1
    59   54   55 1
@<TRIPOS>MOLECULE
ZINC03794499
   56    60     0     0     0
SMALL
USER_CHARGES

@<TRIPOS>ATOM
      1 C1         -2.2133    4.2959    0.9185 C.ar      1 <0>        -0.0891
      2 C2         -1.0855    3.5331    0.6959 C.ar      1 <0>        -0.0649
      3 C3         -1.2111    2.1692    0.4274 C.ar      1 <0>         0.0060
      4 C4         -2.4788    1.5872    0.3807 C.ar      1 <0>        -0.1015
      5 C5         -3.5983    2.3603    0.6098 C.ar      1 <0>        -0.0866
      6 C6         -3.4668    3.7117    0.8760 C.ar      1 <0>        -0.1436
      7 C7         -4.6944    4.5511    1.1201 C.3       1 <0>         0.0449
      8 C8         -4.2102    6.0559   -0.7152 C.3       1 <0>        -0.0442
      9 C9         -4.7214    6.5549   -2.0693 C.3       1 <0>         0.0359
     10 O1         -6.0197    7.1305   -1.9004 O.3       1 <0>        -0.3543
     11 C10        -6.9847    6.2251   -1.3578 C.3       1 <0>         0.0342
     12 C11        -6.4964    5.7227    0.0034 C.3       1 <0>        -0.0395
     13 C12        -0.0068    1.3459    0.1874 C.2       1 <0>         0.2896
     14 N1         -0.0043    0.0090   -0.0835 N.pl3     1 <0>        -0.5482
     15 H1         -0.8062   -0.5846   -0.1512 H         1 <0>         0.4362
     16 C13         1.3092   -0.3700   -0.2463 C.2       1 <0>        -0.0301
     17 C14         2.0708    0.7730   -0.0648 C.2       1 <0>         0.1441
     18 N2          1.2309    1.7866    0.1955 N.2       1 <0>        -0.4487
     19 C15         3.5478    0.8606   -0.1446 C.ar      1 <0>        -0.0550
     20 C16         4.3396   -0.1316    0.4327 C.ar      1 <0>        -0.0769
     21 C17         5.7142   -0.0478    0.3520 C.ar      1 <0>        -0.1529
     22 C18         6.3085    1.0249   -0.2930 C.ar      1 <0>         0.1267
     23 C19         5.5261    2.0159   -0.8637 C.ar      1 <0>        -0.1477
     24 C20         4.1506    1.9385   -0.7924 C.ar      1 <0>        -0.0473
     25 F1          7.6552    1.1050   -0.3654 F         1 <0>        -0.1259
     26 C21         1.8067   -1.7240   -0.5536 C.ar      1 <0>         0.1340
     27 C22         2.7528   -1.9314   -1.5669 C.ar      1 <0>        -0.1153
     28 C23         3.1934   -3.2133   -1.8168 C.ar      1 <0>         0.1555
     29 C24         1.8348   -4.0873   -0.1655 C.ar      1 <0>         0.1566
     30 C25         1.3426   -2.8405    0.1556 C.ar      1 <0>        -0.1366
     31 H2         -2.1176    5.3514    1.1261 H         1 <0>         0.1443
     32 H3         -0.1077    3.9904    0.7291 H         1 <0>         0.1542
     33 H4         -2.5830    0.5333    0.1690 H         1 <0>         0.1315
     34 H5         -4.5796    1.9104    0.5777 H         1 <0>         0.1417
     35 H6         -5.4735    3.9338    1.5674 H         1 <0>         0.1411
     36 H7         -4.4464    5.3695    1.7960 H         1 <0>         0.1429
     37 H8         -4.0989    6.9000   -0.0346 H         1 <0>         0.1428
     38 H9         -3.2460    5.5653   -0.8485 H         1 <0>         0.1381
     39 H10        -4.7818    5.7189   -2.7661 H         1 <0>         0.0793
     40 H11        -4.0379    7.3076   -2.4622 H         1 <0>         0.1424
     41 H12        -7.1109    5.3795   -2.0340 H         1 <0>         0.0806
     42 H13        -7.9383    6.7387   -1.2356 H         1 <0>         0.1441
     43 H14        -7.2011    4.9889    0.3947 H         1 <0>         0.1424
     44 H15        -6.4218    6.5610    0.6961 H         1 <0>         0.1431
     45 H16         3.8773   -0.9660    0.9392 H         1 <0>         0.1247
     46 H17         6.3282   -0.8175    0.7959 H         1 <0>         0.1442
     47 H18         5.9938    2.8505   -1.3648 H         1 <0>         0.1487
     48 H19         3.5416    2.7116   -1.2371 H         1 <0>         0.1421
     49 H20         3.1336   -1.0992   -2.1403 H         1 <0>         0.1905
     50 H21         3.9249   -3.3832   -2.5929 H         1 <0>         0.2057
     51 H22         1.4832   -4.9539    0.3748 H         1 <0>         0.2038
     52 H23         0.6109   -2.7256    0.9416 H         1 <0>         0.1844
     53 N3         -5.1783    5.0785   -0.1741 N.4       1 <0>        -0.3949
     54 H24        -5.2734    4.3002   -0.8371 H         1 <0>         0.4251
     55 N4          2.7572   -4.3123   -1.1415 N.ar      1 <0>        -0.4819
     56 H25         3.1033   -5.2550   -1.3556 H         1 <0>         0.4836
@<TRIPOS>BOND
     1    1    6 ar
     2    1    2 ar
     3    1   31 1
     4    2    3 ar
     5    2   32 1
     6    3    4 ar
     7    3   13 1
     8    4    5 ar
     9    4   33 1
    10    5    6 ar
    11    5   34 1
    12    6    7 1
    13    7   35 1
    14    7   36 1
    15    7   53 1
    16    8    9 1
    17    8   37 1
    18    8   38 1
    19    8   53 1
    20    9   10 1
    21    9   39 1
    22    9   40 1
    23   10   11 1
    24   11   12 1
    25   11   41 1
    26   11   42 1
    27   12   43 1
    28   12   44 1
    29   12   53 1
    30   13   18 2
    31   13   14 1
    32   14   15 1
    33   14   16 1
    34   16   17 2
    35   16   26 1
    36   17   18 1
    37   17   19 1
    38   19   24 ar
    39   19   20 ar
    40   20   21 ar
    41   20   45 1
    42   21   22 ar
    43   21   46 1
    44   22   23 ar
    45   22   25 1
    46   23   24 ar
    47   23   47 1
    48   24   48 1
    49   26   30 ar
    50   26   27 ar
    51   27   28 ar
    52   27   49 1
    53   28   50 1
    54   28   55 ar
    55   29   30 ar
    56   29   51 1
    57   29   55 ar
    58   30   52 1
    59   53   54 1
    60   55   56 1
@<TRIPOS>MOLECULE
ZINC03794499
   55    59     0     0     0
SMALL
USER_CHARGES

@<TRIPOS>ATOM
      1 C1         -2.2133    4.2959    0.9185 C.ar      1 <0>        -0.0885
      2 C2         -1.0855    3.5331    0.6959 C.ar      1 <0>        -0.0760
      3 C3         -1.2111    2.1692    0.4274 C.ar      1 <0>         0.0339
      4 C4         -2.4788    1.5872    0.3807 C.ar      1 <0>        -0.1110
      5 C5         -3.5983    2.3603    0.6098 C.ar      1 <0>        -0.0840
      6 C6         -3.4668    3.7117    0.8760 C.ar      1 <0>        -0.1610
      7 C7         -4.6944    4.5511    1.1201 C.3       1 <0>         0.0492
      8 C8         -4.2102    6.0559   -0.7152 C.3       1 <0>        -0.0437
      9 C9         -4.7214    6.5549   -2.0693 C.3       1 <0>         0.0359
     10 O1         -6.0197    7.1305   -1.9004 O.3       1 <0>        -0.3563
     11 C10        -6.9847    6.2251   -1.3578 C.3       1 <0>         0.0345
     12 C11        -6.4964    5.7227    0.0034 C.3       1 <0>        -0.0392
     13 C12        -0.0068    1.3459    0.1874 C.2       1 <0>         0.2321
     14 N1         -0.0043    0.0090   -0.0835 N.pl3     1 <0>        -0.5499
     15 H1         -0.8062   -0.5846   -0.1512 H         1 <0>         0.4314
     16 C13         1.3092   -0.3700   -0.2463 C.2       1 <0>         0.0529
     17 C14         2.0708    0.7730   -0.0648 C.2       1 <0>         0.0845
     18 N2          1.2309    1.7866    0.1955 N.2       1 <0>        -0.4428
     19 C15         3.5478    0.8606   -0.1446 C.ar      1 <0>        -0.0296
     20 C16         4.3396   -0.1316    0.4327 C.ar      1 <0>        -0.0677
     21 C17         5.7142   -0.0478    0.3520 C.ar      1 <0>        -0.1503
     22 C18         6.3085    1.0249   -0.2930 C.ar      1 <0>         0.1120
     23 C19         5.5261    2.0159   -0.8637 C.ar      1 <0>        -0.1531
     24 C20         4.1506    1.9385   -0.7924 C.ar      1 <0>        -0.0594
     25 F1          7.6552    1.1050   -0.3654 F         1 <0>        -0.1338
     26 C21         1.8067   -1.7240   -0.5536 C.ar      1 <0>         0.0131
     27 C22         2.7528   -1.9314   -1.5669 C.ar      1 <0>        -0.1405
     28 C23         3.1934   -3.2133   -1.8168 C.ar      1 <0>         0.1109
     29 N3          2.7295   -4.2370   -1.1244 N.ar      1 <0>        -0.4737
     30 C24         1.8348   -4.0873   -0.1655 C.ar      1 <0>         0.1090
     31 C25         1.3426   -2.8405    0.1556 C.ar      1 <0>        -0.1640
     32 H2         -2.1176    5.3514    1.1261 H         1 <0>         0.1392
     33 H3         -0.1077    3.9904    0.7291 H         1 <0>         0.1518
     34 H4         -2.5830    0.5333    0.1690 H         1 <0>         0.1312
     35 H5         -4.5796    1.9104    0.5777 H         1 <0>         0.1375
     36 H6         -5.4735    3.9338    1.5674 H         1 <0>         0.1383
     37 H7         -4.4464    5.3695    1.7960 H         1 <0>         0.1398
     38 H8         -4.0989    6.9000   -0.0346 H         1 <0>         0.1412
     39 H9         -3.2460    5.5653   -0.8485 H         1 <0>         0.1403
     40 H10        -4.7818    5.7189   -2.7661 H         1 <0>         0.0797
     41 H11        -4.0379    7.3076   -2.4622 H         1 <0>         0.1417
     42 H12        -7.1109    5.3795   -2.0340 H         1 <0>         0.0802
     43 H13        -7.9383    6.7387   -1.2356 H         1 <0>         0.1420
     44 H14        -7.2011    4.9889    0.3947 H         1 <0>         0.1411
     45 H15        -6.4218    6.5610    0.6961 H         1 <0>         0.1413
     46 H16         3.8773   -0.9660    0.9392 H         1 <0>         0.1292
     47 H17         6.3282   -0.8175    0.7959 H         1 <0>         0.1410
     48 H18         5.9938    2.8505   -1.3648 H         1 <0>         0.1413
     49 H19         3.5416    2.7116   -1.2371 H         1 <0>         0.1359
     50 H20         3.1336   -1.0992   -2.1403 H         1 <0>         0.1407
     51 H21         3.9249   -3.3832   -2.5929 H         1 <0>         0.1647
     52 H22         1.4832   -4.9539    0.3748 H         1 <0>         0.1626
     53 H23         0.6109   -2.7256    0.9416 H         1 <0>         0.1339
     54 N4         -5.1783    5.0785   -0.1741 N.4       1 <0>        -0.3951
     55 H24        -5.2734    4.3002   -0.8371 H         1 <0>         0.4256
@<TRIPOS>BOND
     1    1    6 ar
     2    1    2 ar
     3    1   32 1
     4    2    3 ar
     5    2   33 1
     6    3    4 ar
     7    3   13 1
     8    4    5 ar
     9    4   34 1
    10    5    6 ar
    11    5   35 1
    12    6    7 1
    13    7   36 1
    14    7   37 1
    15    7   54 1
    16    8    9 1
    17    8   38 1
    18    8   39 1
    19    8   54 1
    20    9   10 1
    21    9   40 1
    22    9   41 1
    23   10   11 1
    24   11   12 1
    25   11   42 1
    26   11   43 1
    27   12   44 1
    28   12   45 1
    29   12   54 1
    30   13   18 2
    31   13   14 1
    32   14   15 1
    33   14   16 1
    34   16   17 2
    35   16   26 1
    36   17   18 1
    37   17   19 1
    38   19   24 ar
    39   19   20 ar
    40   20   21 ar
    41   20   46 1
    42   21   22 ar
    43   21   47 1
    44   22   23 ar
    45   22   25 1
    46   23   24 ar
    47   23   48 1
    48   24   49 1
    49   26   31 ar
    50   26   27 ar
    51   27   28 ar
    52   27   50 1
    53   28   29 ar
    54   28   51 1
    55   29   30 ar
    56   30   31 ar
    57   30   52 1
    58   31   53 1
    59   54   55 1
@<TRIPOS>MOLECULE
ZINC03794511
   46    49     0     0     0
SMALL
USER_CHARGES

@<TRIPOS>ATOM
      1 C1          0.3103    2.2563    4.5305 C.3       1 <0>        -0.1082
      2 C2         -0.5592    2.1844    3.3018 C.ar      1 <0>         0.1384
      3 C3         -1.9203    2.3684    3.4206 C.ar      1 <0>        -0.1420
      4 C4         -2.7170    2.3045    2.2692 C.ar      1 <0>         0.0264
      5 C5         -2.0877    2.0437    1.0439 C.ar      1 <0>        -0.1734
      6 C6         -0.7212    1.8673    1.0194 C.ar      1 <0>         0.1128
      7 N1         -0.0077    1.9410    2.1277 N.ar      1 <0>        -0.4797
      8 C7         -4.1768    2.5009    2.3454 C.2       1 <0>         0.0355
      9 C8         -4.8444    3.5145    3.0135 C.2       1 <0>         0.0793
     10 N2         -6.1603    3.3266    2.8310 N.2       1 <0>        -0.4493
     11 C9         -6.3540    2.2586    2.0906 C.2       1 <0>         0.2576
     12 N3         -5.1462    1.7167    1.7617 N.pl3     1 <0>        -0.5514
     13 H1         -4.9935    0.9025    1.2016 H         1 <0>         0.4312
     14 C10        -7.6714    1.7313    1.6753 C.ar      1 <0>         0.0180
     15 C11        -7.7492    0.5866    0.8805 C.ar      1 <0>        -0.1255
     16 C12        -8.9818    0.0973    0.5001 C.ar      1 <0>        -0.0496
     17 C13       -10.1387    0.7442    0.8966 C.ar      1 <0>        -0.4536
     18 C14       -10.0683    1.8824    1.6802 C.ar      1 <0>        -0.0383
     19 C15        -8.8423    2.3793    2.0715 C.ar      1 <0>        -0.0926
     20 S1        -11.7086    0.1161    0.4012 S.o       1 <0>         1.3328
     21 O1        -11.4668   -1.2635    0.1613 O.2       1 <0>        -0.8522
     22 C16       -12.0399    0.9546   -1.1729 C.3       1 <0>        -0.4976
     23 C17        -4.2175    4.6099    3.7898 C.ar      1 <0>        -0.0199
     24 C18        -4.7631    5.0022    5.0118 C.ar      1 <0>        -0.0599
     25 C19        -4.1734    6.0197    5.7330 C.ar      1 <0>        -0.1525
     26 C20        -3.0465    6.6581    5.2404 C.ar      1 <0>         0.1057
     27 C21        -2.5039    6.2754    4.0243 C.ar      1 <0>        -0.1513
     28 C22        -3.0836    5.2558    3.2981 C.ar      1 <0>        -0.0695
     29 F1         -2.4753    7.6572    5.9481 F         1 <0>        -0.1372
     30 H2          0.6475    3.2823    4.6776 H         1 <0>         0.0828
     31 H3          1.1746    1.6046    4.4026 H         1 <0>         0.0807
     32 H4         -0.2623    1.9339    5.4002 H         1 <0>         0.0769
     33 H5         -2.3652    2.5625    4.3853 H         1 <0>         0.1392
     34 H6         -2.6650    1.9823    0.1331 H         1 <0>         0.1334
     35 H7         -0.2270    1.6662    0.0803 H         1 <0>         0.1611
     36 H8         -6.8467    0.0830    0.5669 H         1 <0>         0.1202
     37 H9         -9.0435   -0.7906   -0.1118 H         1 <0>         0.1320
     38 H10       -10.9752    2.3826    1.9864 H         1 <0>         0.1468
     39 H11        -8.7887    3.2681    2.6828 H         1 <0>         0.1460
     40 H12       -11.2549    0.7085   -1.8879 H         1 <0>         0.0809
     41 H13       -13.0031    0.6266   -1.5636 H         1 <0>         0.1087
     42 H14       -12.0607    2.0326   -1.0129 H         1 <0>         0.1130
     43 H15        -5.6438    4.5080    5.3946 H         1 <0>         0.1380
     44 H16        -4.5931    6.3219    6.6811 H         1 <0>         0.1401
     45 H17        -1.6259    6.7764    3.6441 H         1 <0>         0.1382
     46 H18        -2.6601    4.9584    2.3501 H         1 <0>         0.1282
@<TRIPOS>BOND
     1    1    2 1
     2    1   30 1
     3    1   31 1
     4    1   32 1
     5    2    7 ar
     6    2    3 ar
     7    3    4 ar
     8    3   33 1
     9    4    5 ar
    10    4    8 1
    11    5    6 ar
    12    5   34 1
    13    6    7 ar
    14    6   35 1
    15    8   12 1
    16    8    9 2
    17    9   10 1
    18    9   23 1
    19   10   11 2
    20   11   12 1
    21   11   14 1
    22   12   13 1
    23   14   19 ar
    24   14   15 ar
    25   15   16 ar
    26   15   36 1
    27   16   17 ar
    28   16   37 1
    29   17   18 ar
    30   17   20 1
    31   18   19 ar
    32   18   38 1
    33   19   39 1
    34   20   21 2
    35   20   22 1
    36   22   40 1
    37   22   41 1
    38   22   42 1
    39   23   28 ar
    40   23   24 ar
    41   24   25 ar
    42   24   43 1
    43   25   26 ar
    44   25   44 1
    45   26   27 ar
    46   26   29 1
    47   27   28 ar
    48   27   45 1
    49   28   46 1
@<TRIPOS>MOLECULE
ZINC03794511
   46    49     0     0     0
SMALL
USER_CHARGES

@<TRIPOS>ATOM
      1 C1          0.3103    2.2563    4.5305 C.3       1 <0>        -0.1082
      2 C2         -0.5592    2.1844    3.3018 C.ar      1 <0>         0.1384
      3 C3         -1.9203    2.3684    3.4206 C.ar      1 <0>        -0.1420
      4 C4         -2.7170    2.3045    2.2692 C.ar      1 <0>         0.0264
      5 C5         -2.0877    2.0437    1.0439 C.ar      1 <0>        -0.1734
      6 C6         -0.7212    1.8673    1.0194 C.ar      1 <0>         0.1128
      7 N1         -0.0077    1.9410    2.1277 N.ar      1 <0>        -0.4797
      8 C7         -4.1768    2.5009    2.3454 C.2       1 <0>         0.0355
      9 C8         -4.8444    3.5145    3.0135 C.2       1 <0>         0.0793
     10 N2         -6.1603    3.3266    2.8310 N.2       1 <0>        -0.4493
     11 C9         -6.3540    2.2586    2.0906 C.2       1 <0>         0.2576
     12 N3         -5.1462    1.7167    1.7617 N.pl3     1 <0>        -0.5514
     13 H1         -4.9935    0.9025    1.2016 H         1 <0>         0.4312
     14 C10        -7.6714    1.7313    1.6753 C.ar      1 <0>         0.0180
     15 C11        -7.7492    0.5866    0.8805 C.ar      1 <0>        -0.1255
     16 C12        -8.9818    0.0973    0.5001 C.ar      1 <0>        -0.0496
     17 C13       -10.1387    0.7442    0.8966 C.ar      1 <0>        -0.4536
     18 C14       -10.0683    1.8824    1.6802 C.ar      1 <0>        -0.0383
     19 C15        -8.8423    2.3793    2.0715 C.ar      1 <0>        -0.0926
     20 S1        -11.7086    0.1161    0.4012 S.o       1 <0>         1.3328
     21 O1        -11.4668   -1.2635    0.1613 O.2       1 <0>        -0.8522
     22 C16       -12.0399    0.9546   -1.1729 C.3       1 <0>        -0.4976
     23 C17        -4.2175    4.6099    3.7898 C.ar      1 <0>        -0.0199
     24 C18        -4.7631    5.0022    5.0118 C.ar      1 <0>        -0.0599
     25 C19        -4.1734    6.0197    5.7330 C.ar      1 <0>        -0.1525
     26 C20        -3.0465    6.6581    5.2404 C.ar      1 <0>         0.1057
     27 C21        -2.5039    6.2754    4.0243 C.ar      1 <0>        -0.1513
     28 C22        -3.0836    5.2558    3.2981 C.ar      1 <0>        -0.0695
     29 F1         -2.4753    7.6572    5.9481 F         1 <0>        -0.1372
     30 H2          0.6475    3.2823    4.6776 H         1 <0>         0.0828
     31 H3          1.1746    1.6046    4.4026 H         1 <0>         0.0807
     32 H4         -0.2623    1.9339    5.4002 H         1 <0>         0.0769
     33 H5         -2.3652    2.5625    4.3853 H         1 <0>         0.1392
     34 H6         -2.6650    1.9823    0.1331 H         1 <0>         0.1334
     35 H7         -0.2270    1.6662    0.0803 H         1 <0>         0.1611
     36 H8         -6.8467    0.0830    0.5669 H         1 <0>         0.1202
     37 H9         -9.0435   -0.7906   -0.1118 H         1 <0>         0.1320
     38 H10       -10.9752    2.3826    1.9864 H         1 <0>         0.1468
     39 H11        -8.7887    3.2681    2.6828 H         1 <0>         0.1460
     40 H12       -11.2549    0.7085   -1.8879 H         1 <0>         0.0809
     41 H13       -13.0031    0.6266   -1.5636 H         1 <0>         0.1087
     42 H14       -12.0607    2.0326   -1.0129 H         1 <0>         0.1130
     43 H15        -5.6438    4.5080    5.3946 H         1 <0>         0.1380
     44 H16        -4.5931    6.3219    6.6811 H         1 <0>         0.1401
     45 H17        -1.6259    6.7764    3.6441 H         1 <0>         0.1382
     46 H18        -2.6601    4.9584    2.3501 H         1 <0>         0.1282
@<TRIPOS>BOND
     1    1    2 1
     2    1   30 1
     3    1   31 1
     4    1   32 1
     5    2    7 ar
     6    2    3 ar
     7    3    4 ar
     8    3   33 1
     9    4    5 ar
    10    4    8 1
    11    5    6 ar
    12    5   34 1
    13    6    7 ar
    14    6   35 1
    15    8   12 1
    16    8    9 2
    17    9   10 1
    18    9   23 1
    19   10   11 2
    20   11   12 1
    21   11   14 1
    22   12   13 1
    23   14   19 ar
    24   14   15 ar
    25   15   16 ar
    26   15   36 1
    27   16   17 ar
    28   16   37 1
    29   17   18 ar
    30   17   20 1
    31   18   19 ar
    32   18   38 1
    33   19   39 1
    34   20   21 2
    35   20   22 1
    36   22   40 1
    37   22   41 1
    38   22   42 1
    39   23   28 ar
    40   23   24 ar
    41   24   25 ar
    42   24   43 1
    43   25   26 ar
    44   25   44 1
    45   26   27 ar
    46   26   29 1
    47   27   28 ar
    48   27   45 1
    49   28   46 1
@<TRIPOS>MOLECULE
ZINC03794511
   47    50     0     0     0
SMALL
USER_CHARGES

@<TRIPOS>ATOM
      1 C1          0.3103    2.2563    4.5305 C.3       1 <0>        -0.1545
      2 C2         -0.5592    2.1844    3.3018 C.ar      1 <0>         0.1902
      3 C3         -1.9203    2.3684    3.4206 C.ar      1 <0>        -0.1209
      4 C4         -2.7170    2.3045    2.2692 C.ar      1 <0>         0.1453
      5 C5         -2.0877    2.0437    1.0439 C.ar      1 <0>        -0.1451
      6 C6         -0.7212    1.8673    1.0194 C.ar      1 <0>         0.1556
      7 C7         -4.1768    2.5009    2.3454 C.2       1 <0>        -0.0447
      8 C8         -4.8444    3.5145    3.0135 C.2       1 <0>         0.1406
      9 N1         -6.1603    3.3266    2.8310 N.2       1 <0>        -0.4543
     10 C9         -6.3540    2.2586    2.0906 C.2       1 <0>         0.3149
     11 N2         -5.1462    1.7167    1.7617 N.pl3     1 <0>        -0.5506
     12 H1         -4.9935    0.9025    1.2016 H         1 <0>         0.4362
     13 C10        -7.6714    1.7313    1.6753 C.ar      1 <0>        -0.0102
     14 C11        -7.7492    0.5866    0.8805 C.ar      1 <0>        -0.1166
     15 C12        -8.9818    0.0973    0.5001 C.ar      1 <0>        -0.0522
     16 C13       -10.1387    0.7442    0.8966 C.ar      1 <0>        -0.4405
     17 C14       -10.0683    1.8824    1.6802 C.ar      1 <0>        -0.0385
     18 C15        -8.8423    2.3793    2.0715 C.ar      1 <0>        -0.0816
     19 S1        -11.7086    0.1161    0.4012 S.o       1 <0>         1.3345
     20 O1        -11.4668   -1.2635    0.1613 O.2       1 <0>        -0.8473
     21 C16       -12.0399    0.9546   -1.1729 C.3       1 <0>        -0.4966
     22 C17        -4.2175    4.6099    3.7898 C.ar      1 <0>        -0.0456
     23 C18        -4.7631    5.0022    5.0118 C.ar      1 <0>        -0.0475
     24 C19        -4.1734    6.0197    5.7330 C.ar      1 <0>        -0.1473
     25 C20        -3.0465    6.6581    5.2404 C.ar      1 <0>         0.1204
     26 C21        -2.5039    6.2754    4.0243 C.ar      1 <0>        -0.1541
     27 C22        -3.0836    5.2558    3.2981 C.ar      1 <0>        -0.0783
     28 F1         -2.4753    7.6572    5.9481 F         1 <0>        -0.1294
     29 H2          0.6475    3.2823    4.6776 H         1 <0>         0.1194
     30 H3          1.1746    1.6046    4.4026 H         1 <0>         0.1002
     31 H4         -0.2623    1.9339    5.4002 H         1 <0>         0.1172
     32 H5         -2.3652    2.5625    4.3853 H         1 <0>         0.1883
     33 H6         -2.6650    1.9823    0.1331 H         1 <0>         0.1839
     34 H7         -0.2270    1.6662    0.0803 H         1 <0>         0.2018
     35 H8         -6.8467    0.0830    0.5669 H         1 <0>         0.1203
     36 H9         -9.0435   -0.7906   -0.1118 H         1 <0>         0.1358
     37 H10       -10.9752    2.3826    1.9864 H         1 <0>         0.1516
     38 H11        -8.7887    3.2681    2.6828 H         1 <0>         0.1482
     39 H12       -11.2549    0.7085   -1.8879 H         1 <0>         0.0817
     40 H13       -13.0031    0.6266   -1.5636 H         1 <0>         0.1122
     41 H14       -12.0607    2.0326   -1.0129 H         1 <0>         0.1144
     42 H15        -5.6438    4.5080    5.3946 H         1 <0>         0.1442
     43 H16        -4.5931    6.3219    6.6811 H         1 <0>         0.1475
     44 H17        -1.6259    6.7764    3.6441 H         1 <0>         0.1416
     45 H18        -2.6601    4.9584    2.3501 H         1 <0>         0.1239
     46 N3          0.0735    1.9301    2.1235 N.ar      1 <0>        -0.4906
     47 H19         1.0898    1.7937    2.0704 H         1 <0>         0.4767
@<TRIPOS>BOND
     1    1    2 1
     2    1   29 1
     3    1   30 1
     4    1   31 1
     5    2    3 ar
     6    2   46 ar
     7    3    4 ar
     8    3   32 1
     9    4    5 ar
    10    4    7 1
    11    5    6 ar
    12    5   33 1
    13    6   34 1
    14    6   46 ar
    15    7   11 1
    16    7    8 2
    17    8    9 1
    18    8   22 1
    19    9   10 2
    20   10   11 1
    21   10   13 1
    22   11   12 1
    23   13   18 ar
    24   13   14 ar
    25   14   15 ar
    26   14   35 1
    27   15   16 ar
    28   15   36 1
    29   16   17 ar
    30   16   19 1
    31   17   18 ar
    32   17   37 1
    33   18   38 1
    34   19   20 2
    35   19   21 1
    36   21   39 1
    37   21   40 1
    38   21   41 1
    39   22   27 ar
    40   22   23 ar
    41   23   24 ar
    42   23   42 1
    43   24   25 ar
    44   24   43 1
    45   25   26 ar
    46   25   28 1
    47   26   27 ar
    48   26   44 1
    49   27   45 1
    50   46   47 1
@<TRIPOS>MOLECULE
ZINC03794514
   49    53     0     0     0
SMALL
USER_CHARGES

@<TRIPOS>ATOM
      1 C1          8.4431   -7.4804   -3.1146 C.3       1 <0>        -0.4976
      2 S1          8.8409   -5.8438   -3.7884 S.o       1 <0>         1.3325
      3 O1          8.3418   -5.7437   -5.1151 O.2       1 <0>        -0.8522
      4 C2          7.8206   -4.7432   -2.8651 C.ar      1 <0>        -0.4534
      5 C3          8.2934   -4.1892   -1.6887 C.ar      1 <0>        -0.0384
      6 C4          7.4996   -3.3271   -0.9608 C.ar      1 <0>        -0.0925
      7 C5          6.2168   -3.0142   -1.4135 C.ar      1 <0>         0.0179
      8 C6          5.7438   -3.5812   -2.5981 C.ar      1 <0>        -0.1254
      9 C7          6.5500   -4.4373   -3.3194 C.ar      1 <0>        -0.0496
     10 C8          5.3607   -2.0913   -0.6387 C.2       1 <0>         0.2575
     11 N1          4.0957   -1.7130   -0.9801 N.pl3     1 <0>        -0.5492
     12 H1          3.5861   -2.0063   -1.7890 H         1 <0>         0.4316
     13 C9          3.6515   -0.8506   -0.0012 C.2       1 <0>         0.0340
     14 C10         4.6891   -0.7314    0.9135 C.2       1 <0>         0.0822
     15 N2          5.6985   -1.5046    0.4879 N.2       1 <0>        -0.4489
     16 C11         4.6809    0.0977    2.1410 C.ar      1 <0>        -0.0179
     17 C12         5.8141    0.8273    2.5001 C.ar      1 <0>        -0.0606
     18 C13         5.7998    1.6021    3.6413 C.ar      1 <0>        -0.1520
     19 C14         4.6657    1.6476    4.4363 C.ar      1 <0>         0.1057
     20 C15         3.5391    0.9204    4.0866 C.ar      1 <0>        -0.1506
     21 C16         3.5418    0.1468    2.9446 C.ar      1 <0>        -0.0701
     22 F1          4.6585    2.4031    5.5563 F         1 <0>        -0.1375
     23 C17         2.3422   -0.1845    0.0590 C.ar      1 <0>         0.0334
     24 C18         1.1633   -0.9109    0.2385 C.ar      1 <0>        -0.1573
     25 C19        -0.0493   -0.2413    0.2898 C.ar      1 <0>         0.1357
     26 N3         -0.1426    1.0619    0.1760 N.ar      1 <0>        -0.4659
     27 C20         0.9268    1.8449    0.0015 C.ar      1 <0>         0.1287
     28 C21         2.2186    1.2695   -0.0661 C.ar      1 <0>        -0.0762
     29 C22         3.3375    2.0879   -0.2489 C.ar      1 <0>        -0.0923
     30 C23         3.1732    3.4373   -0.3609 C.ar      1 <0>        -0.1073
     31 C24         1.9052    4.0087   -0.2957 C.ar      1 <0>        -0.0979
     32 C25         0.7958    3.2392   -0.1188 C.ar      1 <0>        -0.0907
     33 H2          7.3823   -7.6849   -3.2594 H         1 <0>         0.0810
     34 H3          9.0329   -8.2386   -3.6298 H         1 <0>         0.1087
     35 H4          8.6751   -7.5011   -2.0498 H         1 <0>         0.1130
     36 H5          9.2863   -4.4318   -1.3398 H         1 <0>         0.1467
     37 H6          7.8697   -2.8956   -0.0426 H         1 <0>         0.1460
     38 H7          4.7506   -3.3467   -2.9515 H         1 <0>         0.1202
     39 H8          6.1871   -4.8729   -4.2386 H         1 <0>         0.1320
     40 H9          6.7001    0.7886    1.8837 H         1 <0>         0.1377
     41 H10         6.6752    2.1708    3.9178 H         1 <0>         0.1398
     42 H11         2.6577    0.9591    4.7094 H         1 <0>         0.1376
     43 H12         2.6636   -0.4201    2.6732 H         1 <0>         0.1279
     44 H13         1.1960   -1.9860    0.3369 H         1 <0>         0.1403
     45 H14        -0.9532   -0.8156    0.4294 H         1 <0>         0.1634
     46 H15         4.3252    1.6543   -0.3016 H         1 <0>         0.1271
     47 H16         4.0370    4.0700   -0.5022 H         1 <0>         0.1302
     48 H17         1.7998    5.0796   -0.3872 H         1 <0>         0.1333
     49 H18        -0.1807    3.6983   -0.0711 H         1 <0>         0.1390
@<TRIPOS>BOND
     1    1    2 1
     2    1   33 1
     3    1   34 1
     4    1   35 1
     5    2    3 2
     6    2    4 1
     7    4    9 ar
     8    4    5 ar
     9    5    6 ar
    10    5   36 1
    11    6    7 ar
    12    6   37 1
    13    7    8 ar
    14    7   10 1
    15    8    9 ar
    16    8   38 1
    17    9   39 1
    18   10   15 2
    19   10   11 1
    20   11   12 1
    21   11   13 1
    22   13   14 2
    23   13   23 1
    24   14   15 1
    25   14   16 1
    26   16   21 ar
    27   16   17 ar
    28   17   18 ar
    29   17   40 1
    30   18   19 ar
    31   18   41 1
    32   19   20 ar
    33   19   22 1
    34   20   21 ar
    35   20   42 1
    36   21   43 1
    37   23   28 ar
    38   23   24 ar
    39   24   25 ar
    40   24   44 1
    41   25   26 ar
    42   25   45 1
    43   26   27 ar
    44   27   32 ar
    45   27   28 ar
    46   28   29 ar
    47   29   30 ar
    48   29   46 1
    49   30   31 ar
    50   30   47 1
    51   31   32 ar
    52   31   48 1
    53   32   49 1
@<TRIPOS>MOLECULE
ZINC03794514
   49    53     0     0     0
SMALL
USER_CHARGES

@<TRIPOS>ATOM
      1 C1          8.4431   -7.4804   -3.1146 C.3       1 <0>        -0.4976
      2 S1          8.8409   -5.8438   -3.7884 S.o       1 <0>         1.3325
      3 O1          8.3418   -5.7437   -5.1151 O.2       1 <0>        -0.8522
      4 C2          7.8206   -4.7432   -2.8651 C.ar      1 <0>        -0.4534
      5 C3          8.2934   -4.1892   -1.6887 C.ar      1 <0>        -0.0384
      6 C4          7.4996   -3.3271   -0.9608 C.ar      1 <0>        -0.0925
      7 C5          6.2168   -3.0142   -1.4135 C.ar      1 <0>         0.0179
      8 C6          5.7438   -3.5812   -2.5981 C.ar      1 <0>        -0.1254
      9 C7          6.5500   -4.4373   -3.3194 C.ar      1 <0>        -0.0496
     10 C8          5.3607   -2.0913   -0.6387 C.2       1 <0>         0.2575
     11 N1          4.0957   -1.7130   -0.9801 N.pl3     1 <0>        -0.5492
     12 H1          3.5861   -2.0063   -1.7890 H         1 <0>         0.4316
     13 C9          3.6515   -0.8506   -0.0012 C.2       1 <0>         0.0340
     14 C10         4.6891   -0.7314    0.9135 C.2       1 <0>         0.0822
     15 N2          5.6985   -1.5046    0.4879 N.2       1 <0>        -0.4489
     16 C11         4.6809    0.0977    2.1410 C.ar      1 <0>        -0.0179
     17 C12         5.8141    0.8273    2.5001 C.ar      1 <0>        -0.0606
     18 C13         5.7998    1.6021    3.6413 C.ar      1 <0>        -0.1520
     19 C14         4.6657    1.6476    4.4363 C.ar      1 <0>         0.1057
     20 C15         3.5391    0.9204    4.0866 C.ar      1 <0>        -0.1506
     21 C16         3.5418    0.1468    2.9446 C.ar      1 <0>        -0.0701
     22 F1          4.6585    2.4031    5.5563 F         1 <0>        -0.1375
     23 C17         2.3422   -0.1845    0.0590 C.ar      1 <0>         0.0334
     24 C18         1.1633   -0.9109    0.2385 C.ar      1 <0>        -0.1573
     25 C19        -0.0493   -0.2413    0.2898 C.ar      1 <0>         0.1357
     26 N3         -0.1426    1.0619    0.1760 N.ar      1 <0>        -0.4659
     27 C20         0.9268    1.8449    0.0015 C.ar      1 <0>         0.1287
     28 C21         2.2186    1.2695   -0.0661 C.ar      1 <0>        -0.0762
     29 C22         3.3375    2.0879   -0.2489 C.ar      1 <0>        -0.0923
     30 C23         3.1732    3.4373   -0.3609 C.ar      1 <0>        -0.1073
     31 C24         1.9052    4.0087   -0.2957 C.ar      1 <0>        -0.0979
     32 C25         0.7958    3.2392   -0.1188 C.ar      1 <0>        -0.0907
     33 H2          7.3823   -7.6849   -3.2594 H         1 <0>         0.0810
     34 H3          9.0329   -8.2386   -3.6298 H         1 <0>         0.1087
     35 H4          8.6751   -7.5011   -2.0498 H         1 <0>         0.1130
     36 H5          9.2863   -4.4318   -1.3398 H         1 <0>         0.1467
     37 H6          7.8697   -2.8956   -0.0426 H         1 <0>         0.1460
     38 H7          4.7506   -3.3467   -2.9515 H         1 <0>         0.1202
     39 H8          6.1871   -4.8729   -4.2386 H         1 <0>         0.1320
     40 H9          6.7001    0.7886    1.8837 H         1 <0>         0.1377
     41 H10         6.6752    2.1708    3.9178 H         1 <0>         0.1398
     42 H11         2.6577    0.9591    4.7094 H         1 <0>         0.1376
     43 H12         2.6636   -0.4201    2.6732 H         1 <0>         0.1279
     44 H13         1.1960   -1.9860    0.3369 H         1 <0>         0.1403
     45 H14        -0.9532   -0.8156    0.4294 H         1 <0>         0.1634
     46 H15         4.3252    1.6543   -0.3016 H         1 <0>         0.1271
     47 H16         4.0370    4.0700   -0.5022 H         1 <0>         0.1302
     48 H17         1.7998    5.0796   -0.3872 H         1 <0>         0.1333
     49 H18        -0.1807    3.6983   -0.0711 H         1 <0>         0.1390
@<TRIPOS>BOND
     1    1    2 1
     2    1   33 1
     3    1   34 1
     4    1   35 1
     5    2    3 2
     6    2    4 1
     7    4    9 ar
     8    4    5 ar
     9    5    6 ar
    10    5   36 1
    11    6    7 ar
    12    6   37 1
    13    7    8 ar
    14    7   10 1
    15    8    9 ar
    16    8   38 1
    17    9   39 1
    18   10   15 2
    19   10   11 1
    20   11   12 1
    21   11   13 1
    22   13   14 2
    23   13   23 1
    24   14   15 1
    25   14   16 1
    26   16   21 ar
    27   16   17 ar
    28   17   18 ar
    29   17   40 1
    30   18   19 ar
    31   18   41 1
    32   19   20 ar
    33   19   22 1
    34   20   21 ar
    35   20   42 1
    36   21   43 1
    37   23   28 ar
    38   23   24 ar
    39   24   25 ar
    40   24   44 1
    41   25   26 ar
    42   25   45 1
    43   26   27 ar
    44   27   32 ar
    45   27   28 ar
    46   28   29 ar
    47   29   30 ar
    48   29   46 1
    49   30   31 ar
    50   30   47 1
    51   31   32 ar
    52   31   48 1
    53   32   49 1
@<TRIPOS>MOLECULE
ZINC03794514
   50    54     0     0     0
SMALL
USER_CHARGES

@<TRIPOS>ATOM
      1 C1          8.4431   -7.4804   -3.1146 C.3       1 <0>        -0.4966
      2 S1          8.8409   -5.8438   -3.7884 S.o       1 <0>         1.3341
      3 O1          8.3418   -5.7437   -5.1151 O.2       1 <0>        -0.8475
      4 C2          7.8206   -4.7432   -2.8651 C.ar      1 <0>        -0.4411
      5 C3          8.2934   -4.1892   -1.6887 C.ar      1 <0>        -0.0384
      6 C4          7.4996   -3.3271   -0.9608 C.ar      1 <0>        -0.0824
      7 C5          6.2168   -3.0142   -1.4135 C.ar      1 <0>        -0.0084
      8 C6          5.7438   -3.5812   -2.5981 C.ar      1 <0>        -0.1174
      9 C7          6.5500   -4.4373   -3.3194 C.ar      1 <0>        -0.0519
     10 C8          5.3607   -2.0913   -0.6387 C.2       1 <0>         0.3092
     11 N1          4.0957   -1.7130   -0.9801 N.pl3     1 <0>        -0.5459
     12 H1          3.5861   -2.0063   -1.7890 H         1 <0>         0.4369
     13 C9          3.6515   -0.8506   -0.0012 C.2       1 <0>        -0.0509
     14 C10         4.6891   -0.7314    0.9135 C.2       1 <0>         0.1346
     15 N2          5.6985   -1.5046    0.4879 N.2       1 <0>        -0.4515
     16 C11         4.6809    0.0977    2.1410 C.ar      1 <0>        -0.0432
     17 C12         5.8141    0.8273    2.5001 C.ar      1 <0>        -0.0504
     18 C13         5.7998    1.6021    3.6413 C.ar      1 <0>        -0.1473
     19 C14         4.6657    1.6476    4.4363 C.ar      1 <0>         0.1194
     20 C15         3.5391    0.9204    4.0866 C.ar      1 <0>        -0.1527
     21 C16         3.5418    0.1468    2.9446 C.ar      1 <0>        -0.0777
     22 F1          4.6585    2.4031    5.5563 F         1 <0>        -0.1299
     23 C17         2.3422   -0.1845    0.0590 C.ar      1 <0>         0.1853
     24 C18         1.1633   -0.9109    0.2385 C.ar      1 <0>        -0.1780
     25 C19        -0.0493   -0.2413    0.2898 C.ar      1 <0>         0.2281
     26 C20         0.9268    1.8449    0.0015 C.ar      1 <0>         0.1419
     27 C21         2.2186    1.2695   -0.0661 C.ar      1 <0>        -0.0698
     28 C22         3.3375    2.0879   -0.2489 C.ar      1 <0>        -0.0543
     29 C23         3.1732    3.4373   -0.3609 C.ar      1 <0>        -0.0948
     30 C24         1.9052    4.0087   -0.2957 C.ar      1 <0>        -0.0311
     31 C25         0.7958    3.2392   -0.1188 C.ar      1 <0>        -0.1455
     32 H2          7.3823   -7.6849   -3.2594 H         1 <0>         0.0817
     33 H3          9.0329   -8.2386   -3.6298 H         1 <0>         0.1121
     34 H4          8.6751   -7.5011   -2.0498 H         1 <0>         0.1143
     35 H5          9.2863   -4.4318   -1.3398 H         1 <0>         0.1513
     36 H6          7.8697   -2.8956   -0.0426 H         1 <0>         0.1481
     37 H7          4.7506   -3.3467   -2.9515 H         1 <0>         0.1202
     38 H8          6.1871   -4.8729   -4.2386 H         1 <0>         0.1355
     39 H9          6.7001    0.7886    1.8837 H         1 <0>         0.1439
     40 H10         6.6752    2.1708    3.9178 H         1 <0>         0.1471
     41 H11         2.6577    0.9591    4.7094 H         1 <0>         0.1409
     42 H12         2.6636   -0.4201    2.6732 H         1 <0>         0.1237
     43 H13         1.1960   -1.9860    0.3369 H         1 <0>         0.1897
     44 H14        -0.9532   -0.8156    0.4294 H         1 <0>         0.2027
     45 H15         4.3252    1.6543   -0.3016 H         1 <0>         0.1549
     46 H16         4.0370    4.0700   -0.5022 H         1 <0>         0.1554
     47 H17         1.7998    5.0796   -0.3872 H         1 <0>         0.1572
     48 H18        -0.1807    3.6983   -0.0711 H         1 <0>         0.1578
     49 N3         -0.2193    1.0974    0.1799 N.ar      1 <0>        -0.4949
     50 H19        -1.1485    1.5318    0.2266 H         1 <0>         0.4758
@<TRIPOS>BOND
     1    1    2 1
     2    1   32 1
     3    1   33 1
     4    1   34 1
     5    2    3 2
     6    2    4 1
     7    4    9 ar
     8    4    5 ar
     9    5    6 ar
    10    5   35 1
    11    6    7 ar
    12    6   36 1
    13    7    8 ar
    14    7   10 1
    15    8    9 ar
    16    8   37 1
    17    9   38 1
    18   10   15 2
    19   10   11 1
    20   11   12 1
    21   11   13 1
    22   13   14 2
    23   13   23 1
    24   14   15 1
    25   14   16 1
    26   16   21 ar
    27   16   17 ar
    28   17   18 ar
    29   17   39 1
    30   18   19 ar
    31   18   40 1
    32   19   20 ar
    33   19   22 1
    34   20   21 ar
    35   20   41 1
    36   21   42 1
    37   23   27 ar
    38   23   24 ar
    39   24   25 ar
    40   24   43 1
    41   25   44 1
    42   25   49 ar
    43   26   31 ar
    44   26   27 ar
    45   26   49 ar
    46   27   28 ar
    47   28   29 ar
    48   28   45 1
    49   29   30 ar
    50   29   46 1
    51   30   31 ar
    52   30   47 1
    53   31   48 1
    54   49   50 1
@<TRIPOS>MOLECULE
ZINC03794516
   43    46     0     0     0
SMALL
USER_CHARGES

@<TRIPOS>ATOM
      1 C1         -3.7524   10.6605   -1.1513 C.3       1 <0>        -0.4977
      2 S1         -2.5313   10.3319   -2.4519 S.o       1 <0>         1.3330
      3 O1         -1.5764   11.3837   -2.4817 O.2       1 <0>        -0.8521
      4 C2         -1.6236    8.9491   -1.8448 C.ar      1 <0>        -0.4534
      5 C3         -2.0418    7.6649   -2.1454 C.ar      1 <0>        -0.0383
      6 C4         -1.3356    6.5779   -1.6732 C.ar      1 <0>        -0.0924
      7 C5         -0.1971    6.7759   -0.8903 C.ar      1 <0>         0.0176
      8 C6          0.2158    8.0739   -0.5856 C.ar      1 <0>        -0.1252
      9 C7         -0.4959    9.1522   -1.0693 C.ar      1 <0>        -0.0496
     10 C8          0.5646    5.6156   -0.3810 C.2       1 <0>         0.2589
     11 N1          1.6878    5.6841    0.3900 N.pl3     1 <0>        -0.5511
     12 H1          2.1410    6.5176    0.7060 H         1 <0>         0.4315
     13 C9          2.0804    4.3911    0.6515 C.2       1 <0>         0.0374
     14 C10         1.1689    3.5687    0.0096 C.2       1 <0>         0.0773
     15 N2          0.2676    4.3546   -0.5993 N.2       1 <0>        -0.4484
     16 C11         1.1830    2.0870    0.0020 C.ar      1 <0>         0.0031
     17 C12        -0.0166    1.3755    0.0096 C.ar      1 <0>        -0.0851
     18 C13         0.0021   -0.0041    0.0020 C.ar      1 <0>        -0.1053
     19 C14         1.2076   -0.6825   -0.0136 C.ar      1 <0>        -0.1045
     20 C15         2.4019    0.0176   -0.0212 C.ar      1 <0>        -0.0333
     21 C16         2.3953    1.3989   -0.0133 C.ar      1 <0>        -0.0938
     22 Cl1         3.9101   -0.8417   -0.0403 Cl        1 <0>        -0.0648
     23 C17         3.2429    3.9654    1.4535 C.ar      1 <0>         0.0209
     24 C18         3.1275    2.9396    2.4018 C.ar      1 <0>        -0.1430
     25 C19         4.2411    2.5710    3.1256 C.ar      1 <0>         0.1096
     26 N3          5.3998    3.1761    2.9425 N.ar      1 <0>        -0.4769
     27 C20         5.5515    4.1497    2.0642 C.ar      1 <0>         0.1079
     28 C21         4.4927    4.5792    1.2931 C.ar      1 <0>        -0.1658
     29 H2         -3.2370   10.8855   -0.2175 H         1 <0>         0.0809
     30 H3         -4.3701   11.5111   -1.4394 H         1 <0>         0.1088
     31 H4         -4.3837    9.7824   -1.0154 H         1 <0>         0.1130
     32 H5         -2.9229    7.5132   -2.7513 H         1 <0>         0.1469
     33 H6         -1.6631    5.5761   -1.9085 H         1 <0>         0.1460
     34 H7          1.0933    8.2337    0.0233 H         1 <0>         0.1203
     35 H8         -0.1747   10.1571   -0.8383 H         1 <0>         0.1322
     36 H9         -0.9587    1.9036    0.0169 H         1 <0>         0.1351
     37 H10        -0.9265   -0.5556    0.0079 H         1 <0>         0.1373
     38 H11         1.2171   -1.7624   -0.0202 H         1 <0>         0.1360
     39 H12         3.3273    1.9446   -0.0196 H         1 <0>         0.1302
     40 H13         2.1815    2.4432    2.5602 H         1 <0>         0.1396
     41 H14         4.1635    1.7790    3.8557 H         1 <0>         0.1624
     42 H15         6.5185    4.6165    1.9483 H         1 <0>         0.1610
     43 H16         4.6243    5.3762    0.5762 H         1 <0>         0.1339
@<TRIPOS>BOND
     1    1    2 1
     2    1   29 1
     3    1   30 1
     4    1   31 1
     5    2    3 2
     6    2    4 1
     7    4    9 ar
     8    4    5 ar
     9    5    6 ar
    10    5   32 1
    11    6    7 ar
    12    6   33 1
    13    7    8 ar
    14    7   10 1
    15    8    9 ar
    16    8   34 1
    17    9   35 1
    18   10   15 2
    19   10   11 1
    20   11   12 1
    21   11   13 1
    22   13   14 2
    23   13   23 1
    24   14   15 1
    25   14   16 1
    26   16   21 ar
    27   16   17 ar
    28   17   18 ar
    29   17   36 1
    30   18   19 ar
    31   18   37 1
    32   19   20 ar
    33   19   38 1
    34   20   21 ar
    35   20   22 1
    36   21   39 1
    37   23   28 ar
    38   23   24 ar
    39   24   25 ar
    40   24   40 1
    41   25   26 ar
    42   25   41 1
    43   26   27 ar
    44   27   28 ar
    45   27   42 1
    46   28   43 1
@<TRIPOS>MOLECULE
ZINC03794516
   44    47     0     0     0
SMALL
USER_CHARGES

@<TRIPOS>ATOM
      1 C1         -3.7524   10.6605   -1.1513 C.3       1 <0>        -0.4967
      2 S1         -2.5313   10.3319   -2.4519 S.o       1 <0>         1.3347
      3 O1         -1.5764   11.3837   -2.4817 O.2       1 <0>        -0.8471
      4 C2         -1.6236    8.9491   -1.8448 C.ar      1 <0>        -0.4400
      5 C3         -2.0418    7.6649   -2.1454 C.ar      1 <0>        -0.0385
      6 C4         -1.3356    6.5779   -1.6732 C.ar      1 <0>        -0.0811
      7 C5         -0.1971    6.7759   -0.8903 C.ar      1 <0>        -0.0112
      8 C6          0.2158    8.0739   -0.5856 C.ar      1 <0>        -0.1161
      9 C7         -0.4959    9.1522   -1.0693 C.ar      1 <0>        -0.0522
     10 C8          0.5646    5.6156   -0.3810 C.2       1 <0>         0.3176
     11 N1          1.6878    5.6841    0.3900 N.pl3     1 <0>        -0.5504
     12 H1          2.1410    6.5176    0.7060 H         1 <0>         0.4367
     13 C9          2.0804    4.3911    0.6515 C.2       1 <0>        -0.0440
     14 C10         1.1689    3.5687    0.0096 C.2       1 <0>         0.1404
     15 N2          0.2676    4.3546   -0.5993 N.2       1 <0>        -0.4537
     16 C11         1.1830    2.0870    0.0020 C.ar      1 <0>        -0.0201
     17 C12        -0.0166    1.3755    0.0096 C.ar      1 <0>        -0.0721
     18 C13         0.0021   -0.0041    0.0020 C.ar      1 <0>        -0.0968
     19 C14         1.2076   -0.6825   -0.0136 C.ar      1 <0>        -0.0916
     20 C15         2.4019    0.0176   -0.0212 C.ar      1 <0>        -0.0361
     21 C16         2.3953    1.3989   -0.0133 C.ar      1 <0>        -0.1045
     22 Cl1         3.9101   -0.8417   -0.0403 Cl        1 <0>        -0.0600
     23 C17         3.2429    3.9654    1.4535 C.ar      1 <0>         0.1418
     24 C18         3.1275    2.9396    2.4018 C.ar      1 <0>        -0.1193
     25 C19         4.2411    2.5710    3.1256 C.ar      1 <0>         0.1521
     26 C20         5.5515    4.1497    2.0642 C.ar      1 <0>         0.1560
     27 C21         4.4927    4.5792    1.2931 C.ar      1 <0>        -0.1400
     28 H2         -3.2370   10.8855   -0.2175 H         1 <0>         0.0818
     29 H3         -4.3701   11.5111   -1.4394 H         1 <0>         0.1123
     30 H4         -4.3837    9.7824   -1.0154 H         1 <0>         0.1144
     31 H5         -2.9229    7.5132   -2.7513 H         1 <0>         0.1518
     32 H6         -1.6631    5.5761   -1.9085 H         1 <0>         0.1483
     33 H7          1.0933    8.2337    0.0233 H         1 <0>         0.1205
     34 H8         -0.1747   10.1571   -0.8383 H         1 <0>         0.1360
     35 H9         -0.9587    1.9036    0.0169 H         1 <0>         0.1420
     36 H10        -0.9265   -0.5556    0.0079 H         1 <0>         0.1452
     37 H11         1.2171   -1.7624   -0.0202 H         1 <0>         0.1427
     38 H12         3.3273    1.9446   -0.0196 H         1 <0>         0.1231
     39 H13         2.1815    2.4432    2.5602 H         1 <0>         0.1895
     40 H14         4.1635    1.7790    3.8557 H         1 <0>         0.2035
     41 H15         6.5185    4.6165    1.9483 H         1 <0>         0.2022
     42 H16         4.6243    5.3762    0.5762 H         1 <0>         0.1843
     43 N3          5.4645    3.1524    2.9871 N.ar      1 <0>        -0.4863
     44 H17         6.2736    2.8564    3.5457 H         1 <0>         0.4809
@<TRIPOS>BOND
     1    1    2 1
     2    1   28 1
     3    1   29 1
     4    1   30 1
     5    2    3 2
     6    2    4 1
     7    4    9 ar
     8    4    5 ar
     9    5    6 ar
    10    5   31 1
    11    6    7 ar
    12    6   32 1
    13    7    8 ar
    14    7   10 1
    15    8    9 ar
    16    8   33 1
    17    9   34 1
    18   10   15 2
    19   10   11 1
    20   11   12 1
    21   11   13 1
    22   13   14 2
    23   13   23 1
    24   14   15 1
    25   14   16 1
    26   16   21 ar
    27   16   17 ar
    28   17   18 ar
    29   17   35 1
    30   18   19 ar
    31   18   36 1
    32   19   20 ar
    33   19   37 1
    34   20   21 ar
    35   20   22 1
    36   21   38 1
    37   23   27 ar
    38   23   24 ar
    39   24   25 ar
    40   24   39 1
    41   25   40 1
    42   25   43 ar
    43   26   27 ar
    44   26   41 1
    45   26   43 ar
    46   27   42 1
    47   43   44 1
@<TRIPOS>MOLECULE
ZINC03794516
   43    46     0     0     0
SMALL
USER_CHARGES

@<TRIPOS>ATOM
      1 C1         -3.7524   10.6605   -1.1513 C.3       1 <0>        -0.4977
      2 S1         -2.5313   10.3319   -2.4519 S.o       1 <0>         1.3330
      3 O1         -1.5764   11.3837   -2.4817 O.2       1 <0>        -0.8521
      4 C2         -1.6236    8.9491   -1.8448 C.ar      1 <0>        -0.4534
      5 C3         -2.0418    7.6649   -2.1454 C.ar      1 <0>        -0.0383
      6 C4         -1.3356    6.5779   -1.6732 C.ar      1 <0>        -0.0924
      7 C5         -0.1971    6.7759   -0.8903 C.ar      1 <0>         0.0176
      8 C6          0.2158    8.0739   -0.5856 C.ar      1 <0>        -0.1252
      9 C7         -0.4959    9.1522   -1.0693 C.ar      1 <0>        -0.0496
     10 C8          0.5646    5.6156   -0.3810 C.2       1 <0>         0.2589
     11 N1          1.6878    5.6841    0.3900 N.pl3     1 <0>        -0.5511
     12 H1          2.1410    6.5176    0.7060 H         1 <0>         0.4315
     13 C9          2.0804    4.3911    0.6515 C.2       1 <0>         0.0374
     14 C10         1.1689    3.5687    0.0096 C.2       1 <0>         0.0773
     15 N2          0.2676    4.3546   -0.5993 N.2       1 <0>        -0.4484
     16 C11         1.1830    2.0870    0.0020 C.ar      1 <0>         0.0031
     17 C12        -0.0166    1.3755    0.0096 C.ar      1 <0>        -0.0851
     18 C13         0.0021   -0.0041    0.0020 C.ar      1 <0>        -0.1053
     19 C14         1.2076   -0.6825   -0.0136 C.ar      1 <0>        -0.1045
     20 C15         2.4019    0.0176   -0.0212 C.ar      1 <0>        -0.0333
     21 C16         2.3953    1.3989   -0.0133 C.ar      1 <0>        -0.0938
     22 Cl1         3.9101   -0.8417   -0.0403 Cl        1 <0>        -0.0648
     23 C17         3.2429    3.9654    1.4535 C.ar      1 <0>         0.0209
     24 C18         3.1275    2.9396    2.4018 C.ar      1 <0>        -0.1430
     25 C19         4.2411    2.5710    3.1256 C.ar      1 <0>         0.1096
     26 N3          5.3998    3.1761    2.9425 N.ar      1 <0>        -0.4769
     27 C20         5.5515    4.1497    2.0642 C.ar      1 <0>         0.1079
     28 C21         4.4927    4.5792    1.2931 C.ar      1 <0>        -0.1658
     29 H2         -3.2370   10.8855   -0.2175 H         1 <0>         0.0809
     30 H3         -4.3701   11.5111   -1.4394 H         1 <0>         0.1088
     31 H4         -4.3837    9.7824   -1.0154 H         1 <0>         0.1130
     32 H5         -2.9229    7.5132   -2.7513 H         1 <0>         0.1469
     33 H6         -1.6631    5.5761   -1.9085 H         1 <0>         0.1460
     34 H7          1.0933    8.2337    0.0233 H         1 <0>         0.1203
     35 H8         -0.1747   10.1571   -0.8383 H         1 <0>         0.1322
     36 H9         -0.9587    1.9036    0.0169 H         1 <0>         0.1351
     37 H10        -0.9265   -0.5556    0.0079 H         1 <0>         0.1373
     38 H11         1.2171   -1.7624   -0.0202 H         1 <0>         0.1360
     39 H12         3.3273    1.9446   -0.0196 H         1 <0>         0.1302
     40 H13         2.1815    2.4432    2.5602 H         1 <0>         0.1396
     41 H14         4.1635    1.7790    3.8557 H         1 <0>         0.1624
     42 H15         6.5185    4.6165    1.9483 H         1 <0>         0.1610
     43 H16         4.6243    5.3762    0.5762 H         1 <0>         0.1339
@<TRIPOS>BOND
     1    1    2 1
     2    1   29 1
     3    1   30 1
     4    1   31 1
     5    2    3 2
     6    2    4 1
     7    4    9 ar
     8    4    5 ar
     9    5    6 ar
    10    5   32 1
    11    6    7 ar
    12    6   33 1
    13    7    8 ar
    14    7   10 1
    15    8    9 ar
    16    8   34 1
    17    9   35 1
    18   10   15 2
    19   10   11 1
    20   11   12 1
    21   11   13 1
    22   13   14 2
    23   13   23 1
    24   14   15 1
    25   14   16 1
    26   16   21 ar
    27   16   17 ar
    28   17   18 ar
    29   17   36 1
    30   18   19 ar
    31   18   37 1
    32   19   20 ar
    33   19   38 1
    34   20   21 ar
    35   20   22 1
    36   21   39 1
    37   23   28 ar
    38   23   24 ar
    39   24   25 ar
    40   24   40 1
    41   25   26 ar
    42   25   41 1
    43   26   27 ar
    44   27   28 ar
    45   27   42 1
    46   28   43 1
@<TRIPOS>MOLECULE
ZINC03810097
   51    54     0     0     0
SMALL
USER_CHARGES

@<TRIPOS>ATOM
      1 C1         -1.4192    4.4337    2.9349 C.ar      1 <0>        -0.0711
      2 C2         -0.6824    4.8865    4.0096 C.ar      1 <0>        -0.1521
      3 C3         -0.6151    6.2431    4.2840 C.ar      1 <0>         0.1119
      4 C4         -1.2825    7.1515    3.4782 C.ar      1 <0>        -0.1526
      5 C5         -2.0179    6.7088    2.3983 C.ar      1 <0>        -0.0581
      6 C6         -2.0887    5.3444    2.1180 C.ar      1 <0>        -0.0317
      7 C7         -2.8775    4.8637    0.9597 C.2       1 <0>         0.0906
      8 C8         -2.5684    3.7868    0.1481 C.2       1 <0>         0.0083
      9 N1         -3.5714    3.7156   -0.7923 N.pl3     1 <0>        -0.4556
     10 C9         -4.4407    4.7146   -0.5305 C.2       1 <0>         0.2058
     11 N2         -4.0270    5.3935    0.5033 N.2       1 <0>        -0.4685
     12 C10        -3.6771    2.7350   -1.8757 C.3       1 <0>         0.1094
     13 C11        -2.8333    3.1967   -3.0655 C.3       1 <0>        -0.1703
     14 C12        -3.0403    2.2383   -4.2400 C.3       1 <0>        -0.0004
     15 C13        -2.7119    3.9698   -5.9017 C.3       1 <0>        -0.0431
     16 C14        -1.8056    4.4224   -7.0495 C.3       1 <0>         0.0348
     17 O1         -1.7789    3.4082   -8.0575 O.3       1 <0>        -0.3551
     18 C15        -1.3140    2.1404   -7.5864 C.3       1 <0>         0.0339
     19 C16        -2.2154    1.6647   -6.4440 C.3       1 <0>        -0.0384
     20 C17        -1.3965    2.8976    0.2632 C.ar      1 <0>         0.0279
     21 C18        -1.5526    1.5078    0.3520 C.ar      1 <0>        -0.1720
     22 C19        -0.4301    0.7155    0.4628 C.ar      1 <0>         0.1081
     23 N3          0.7775    1.2482    0.4759 N.ar      1 <0>        -0.4761
     24 C20         0.9699    2.5512    0.3896 C.ar      1 <0>         0.1104
     25 C21        -0.0957    3.4188    0.2811 C.ar      1 <0>        -0.1483
     26 F1          0.1031    6.6814    5.3410 F         1 <0>        -0.1336
     27 H1         -1.4744    3.3758    2.7242 H         1 <0>         0.1265
     28 H2         -0.1605    4.1823    4.6406 H         1 <0>         0.1398
     29 H3         -1.2271    8.2078    3.6961 H         1 <0>         0.1420
     30 H4         -2.5383    7.4175    1.7712 H         1 <0>         0.1383
     31 H5         -5.3388    4.9223   -1.0932 H         1 <0>         0.2140
     32 H6         -3.3150    1.7679   -1.5270 H         1 <0>         0.1031
     33 H7         -4.7189    2.6438   -2.1827 H         1 <0>         0.1113
     34 H8         -3.1375    4.2016   -3.3585 H         1 <0>         0.0982
     35 H9         -1.7804    3.2036   -2.7834 H         1 <0>         0.0947
     36 H10        -2.7361    1.2335   -3.9470 H         1 <0>         0.1358
     37 H11        -4.0931    2.2314   -4.5221 H         1 <0>         0.1384
     38 H12        -3.7326    3.8562   -6.2670 H         1 <0>         0.1426
     39 H13        -2.6903    4.7141   -5.1057 H         1 <0>         0.1396
     40 H14        -0.7962    4.5877   -6.6728 H         1 <0>         0.0812
     41 H15        -2.1914    5.3486   -7.4753 H         1 <0>         0.1430
     42 H16        -0.2904    2.2393   -7.2253 H         1 <0>         0.0816
     43 H17        -1.3451    1.4160   -8.4003 H         1 <0>         0.1435
     44 H18        -1.8313    0.7264   -6.0439 H         1 <0>         0.1421
     45 H19        -3.2281    1.5142   -6.8180 H         1 <0>         0.1421
     46 H20        -2.5373    1.0646    0.3378 H         1 <0>         0.1334
     47 H21        -0.5400   -0.3565    0.5355 H         1 <0>         0.1612
     48 H22         1.9762    2.9430    0.4039 H         1 <0>         0.1631
     49 H23         0.0693    4.4838    0.2112 H         1 <0>         0.1391
     50 N4         -2.2042    2.6852   -5.3752 N.4       1 <0>        -0.3961
     51 H24        -1.2397    2.8159   -5.0481 H         1 <0>         0.4275
@<TRIPOS>BOND
     1    1    6 ar
     2    1    2 ar
     3    1   27 1
     4    2    3 ar
     5    2   28 1
     6    3    4 ar
     7    3   26 1
     8    4    5 ar
     9    4   29 1
    10    5    6 ar
    11    5   30 1
    12    6    7 1
    13    7   11 1
    14    7    8 2
    15    8    9 1
    16    8   20 1
    17    9   10 1
    18    9   12 1
    19   10   11 2
    20   10   31 1
    21   12   13 1
    22   12   32 1
    23   12   33 1
    24   13   14 1
    25   13   34 1
    26   13   35 1
    27   14   36 1
    28   14   37 1
    29   14   50 1
    30   15   16 1
    31   15   38 1
    32   15   39 1
    33   15   50 1
    34   16   17 1
    35   16   40 1
    36   16   41 1
    37   17   18 1
    38   18   19 1
    39   18   42 1
    40   18   43 1
    41   19   44 1
    42   19   45 1
    43   19   50 1
    44   20   25 ar
    45   20   21 ar
    46   21   22 ar
    47   21   46 1
    48   22   23 ar
    49   22   47 1
    50   23   24 ar
    51   24   25 ar
    52   24   48 1
    53   25   49 1
    54   50   51 1
@<TRIPOS>MOLECULE
ZINC03810097
   52    55     0     0     0
SMALL
USER_CHARGES

@<TRIPOS>ATOM
      1 C1         -1.4192    4.4337    2.9349 C.ar      1 <0>        -0.0799
      2 C2         -0.6824    4.8865    4.0096 C.ar      1 <0>        -0.1546
      3 C3         -0.6151    6.2431    4.2840 C.ar      1 <0>         0.1279
      4 C4         -1.2825    7.1515    3.4782 C.ar      1 <0>        -0.1467
      5 C5         -2.0179    6.7088    2.3983 C.ar      1 <0>        -0.0446
      6 C6         -2.0887    5.3444    2.1180 C.ar      1 <0>        -0.0566
      7 C7         -2.8775    4.8637    0.9597 C.2       1 <0>         0.1504
      8 C8         -2.5684    3.7868    0.1481 C.2       1 <0>        -0.0661
      9 N1         -3.5714    3.7156   -0.7923 N.pl3     1 <0>        -0.4530
     10 C9         -4.4407    4.7146   -0.5305 C.2       1 <0>         0.2507
     11 N2         -4.0270    5.3935    0.5033 N.2       1 <0>        -0.4673
     12 C10        -3.6771    2.7350   -1.8757 C.3       1 <0>         0.1038
     13 C11        -2.8333    3.1967   -3.0655 C.3       1 <0>        -0.1721
     14 C12        -3.0403    2.2383   -4.2400 C.3       1 <0>        -0.0023
     15 C13        -2.7119    3.9698   -5.9017 C.3       1 <0>        -0.0439
     16 C14        -1.8056    4.4224   -7.0495 C.3       1 <0>         0.0344
     17 O1         -1.7789    3.4082   -8.0575 O.3       1 <0>        -0.3514
     18 C15        -1.3140    2.1404   -7.5864 C.3       1 <0>         0.0337
     19 C16        -2.2154    1.6647   -6.4440 C.3       1 <0>        -0.0389
     20 C17        -1.3965    2.8976    0.2632 C.ar      1 <0>         0.1441
     21 C18        -1.5526    1.5078    0.3520 C.ar      1 <0>        -0.1437
     22 C19        -0.4301    0.7155    0.4628 C.ar      1 <0>         0.1546
     23 C20         0.9699    2.5512    0.3896 C.ar      1 <0>         0.1539
     24 C21        -0.0957    3.4188    0.2811 C.ar      1 <0>        -0.1207
     25 F1          0.1031    6.6814    5.3410 F         1 <0>        -0.1252
     26 H1         -1.4744    3.3758    2.7242 H         1 <0>         0.1193
     27 H2         -0.1605    4.1823    4.6406 H         1 <0>         0.1430
     28 H3         -1.2271    8.2078    3.6961 H         1 <0>         0.1498
     29 H4         -2.5383    7.4175    1.7712 H         1 <0>         0.1449
     30 H5         -5.3388    4.9223   -1.0932 H         1 <0>         0.2261
     31 H6         -3.3150    1.7679   -1.5270 H         1 <0>         0.1012
     32 H7         -4.7189    2.6438   -2.1827 H         1 <0>         0.1226
     33 H8         -3.1375    4.2016   -3.3585 H         1 <0>         0.1046
     34 H9         -1.7804    3.2036   -2.7834 H         1 <0>         0.0892
     35 H10        -2.7361    1.2335   -3.9470 H         1 <0>         0.1344
     36 H11        -4.0931    2.2314   -4.5221 H         1 <0>         0.1425
     37 H12        -3.7326    3.8562   -6.2670 H         1 <0>         0.1454
     38 H13        -2.6903    4.7141   -5.1057 H         1 <0>         0.1391
     39 H14        -0.7962    4.5877   -6.6728 H         1 <0>         0.0806
     40 H15        -2.1914    5.3486   -7.4753 H         1 <0>         0.1455
     41 H16        -0.2904    2.2393   -7.2253 H         1 <0>         0.0807
     42 H17        -1.3451    1.4160   -8.4003 H         1 <0>         0.1459
     43 H18        -1.8313    0.7264   -6.0439 H         1 <0>         0.1413
     44 H19        -3.2281    1.5142   -6.8180 H         1 <0>         0.1449
     45 H20        -2.5373    1.0646    0.3378 H         1 <0>         0.1849
     46 H21        -0.5400   -0.3565    0.5355 H         1 <0>         0.2034
     47 H22         1.9762    2.9430    0.4039 H         1 <0>         0.2052
     48 H23         0.0693    4.4838    0.2112 H         1 <0>         0.1905
     49 N3         -2.2042    2.6852   -5.3752 N.4       1 <0>        -0.3960
     50 H24        -1.2397    2.8159   -5.0481 H         1 <0>         0.4241
     51 N4          0.8426    1.1988    0.4823 N.ar      1 <0>        -0.4837
     52 H25         1.6581    0.5801    0.5621 H         1 <0>         0.4840
@<TRIPOS>BOND
     1    1    6 ar
     2    1    2 ar
     3    1   26 1
     4    2    3 ar
     5    2   27 1
     6    3    4 ar
     7    3   25 1
     8    4    5 ar
     9    4   28 1
    10    5    6 ar
    11    5   29 1
    12    6    7 1
    13    7   11 1
    14    7    8 2
    15    8    9 1
    16    8   20 1
    17    9   10 1
    18    9   12 1
    19   10   11 2
    20   10   30 1
    21   12   13 1
    22   12   31 1
    23   12   32 1
    24   13   14 1
    25   13   33 1
    26   13   34 1
    27   14   35 1
    28   14   36 1
    29   14   49 1
    30   15   16 1
    31   15   37 1
    32   15   38 1
    33   15   49 1
    34   16   17 1
    35   16   39 1
    36   16   40 1
    37   17   18 1
    38   18   19 1
    39   18   41 1
    40   18   42 1
    41   19   43 1
    42   19   44 1
    43   19   49 1
    44   20   24 ar
    45   20   21 ar
    46   21   22 ar
    47   21   45 1
    48   22   46 1
    49   22   51 ar
    50   23   24 ar
    51   23   47 1
    52   23   51 ar
    53   24   48 1
    54   49   50 1
    55   51   52 1
@<TRIPOS>MOLECULE
ZINC03810100
   40    42     0     0     0
SMALL
USER_CHARGES

@<TRIPOS>ATOM
      1 C1         -1.4192    4.4337    2.9349 C.ar      1 <0>        -0.0711
      2 C2         -0.6824    4.8865    4.0096 C.ar      1 <0>        -0.1521
      3 C3         -0.6151    6.2431    4.2840 C.ar      1 <0>         0.1120
      4 C4         -1.2825    7.1515    3.4782 C.ar      1 <0>        -0.1526
      5 C5         -2.0179    6.7088    2.3983 C.ar      1 <0>        -0.0581
      6 C6         -2.0887    5.3444    2.1180 C.ar      1 <0>        -0.0321
      7 C7         -2.8775    4.8637    0.9597 C.2       1 <0>         0.0908
      8 C8         -2.5684    3.7868    0.1481 C.2       1 <0>         0.0080
      9 N1         -3.5714    3.7156   -0.7923 N.pl3     1 <0>        -0.4563
     10 C9         -4.4407    4.7146   -0.5305 C.2       1 <0>         0.2061
     11 N2         -4.0270    5.3935    0.5033 N.2       1 <0>        -0.4689
     12 C10        -3.6771    2.7350   -1.8757 C.3       1 <0>         0.1078
     13 C11        -2.8333    3.1967   -3.0655 C.3       1 <0>        -0.1740
     14 C12        -3.0403    2.2383   -4.2400 C.3       1 <0>         0.0002
     15 C13        -1.3965    2.8976    0.2632 C.ar      1 <0>         0.0277
     16 C14        -1.5526    1.5078    0.3520 C.ar      1 <0>        -0.1722
     17 C15        -0.4301    0.7155    0.4628 C.ar      1 <0>         0.1082
     18 N3          0.7775    1.2482    0.4759 N.ar      1 <0>        -0.4761
     19 C16         0.9699    2.5512    0.3896 C.ar      1 <0>         0.1106
     20 C17        -0.0957    3.4188    0.2811 C.ar      1 <0>        -0.1482
     21 F1          0.1031    6.6814    5.3410 F         1 <0>        -0.1335
     22 H1         -1.4744    3.3758    2.7242 H         1 <0>         0.1266
     23 H2         -0.1605    4.1823    4.6406 H         1 <0>         0.1398
     24 H3         -1.2271    8.2078    3.6961 H         1 <0>         0.1421
     25 H4         -2.5383    7.4175    1.7712 H         1 <0>         0.1384
     26 H5         -5.3388    4.9223   -1.0932 H         1 <0>         0.2143
     27 H6         -3.3150    1.7679   -1.5270 H         1 <0>         0.1030
     28 H7         -4.7189    2.6438   -2.1827 H         1 <0>         0.1114
     29 H8         -3.1375    4.2016   -3.3585 H         1 <0>         0.0991
     30 H9         -1.7804    3.2036   -2.7834 H         1 <0>         0.0955
     31 H10        -2.7361    1.2335   -3.9470 H         1 <0>         0.1393
     32 H11        -4.0931    2.2314   -4.5221 H         1 <0>         0.1384
     33 H12        -1.2569    2.7583   -5.1274 H         1 <0>         0.4390
     34 H13        -2.3496    2.0643   -6.1716 H         1 <0>         0.4444
     35 H14        -2.5373    1.0646    0.3378 H         1 <0>         0.1334
     36 H15        -0.5400   -0.3565    0.5355 H         1 <0>         0.1613
     37 H16         1.9762    2.9430    0.4039 H         1 <0>         0.1632
     38 H17         0.0693    4.4838    0.2112 H         1 <0>         0.1392
     39 N4         -2.2405    2.7043   -5.3866 N.4       1 <0>        -0.6461
     40 H18        -2.5647    3.6372   -5.6673 H         1 <0>         0.4415
@<TRIPOS>BOND
     1    1    6 ar
     2    1    2 ar
     3    1   22 1
     4    2    3 ar
     5    2   23 1
     6    3    4 ar
     7    3   21 1
     8    4    5 ar
     9    4   24 1
    10    5    6 ar
    11    5   25 1
    12    6    7 1
    13    7   11 1
    14    7    8 2
    15    8    9 1
    16    8   15 1
    17    9   10 1
    18    9   12 1
    19   10   11 2
    20   10   26 1
    21   12   13 1
    22   12   27 1
    23   12   28 1
    24   13   14 1
    25   13   29 1
    26   13   30 1
    27   14   31 1
    28   14   32 1
    29   14   39 1
    30   15   20 ar
    31   15   16 ar
    32   16   17 ar
    33   16   35 1
    34   17   18 ar
    35   17   36 1
    36   18   19 ar
    37   19   20 ar
    38   19   37 1
    39   20   38 1
    40   33   39 1
    41   34   39 1
    42   39   40 1
@<TRIPOS>MOLECULE
ZINC03810100
   41    43     0     0     0
SMALL
USER_CHARGES

@<TRIPOS>ATOM
      1 C1         -1.4192    4.4337    2.9349 C.ar      1 <0>        -0.0798
      2 C2         -0.6824    4.8865    4.0096 C.ar      1 <0>        -0.1546
      3 C3         -0.6151    6.2431    4.2840 C.ar      1 <0>         0.1280
      4 C4         -1.2825    7.1515    3.4782 C.ar      1 <0>        -0.1466
      5 C5         -2.0179    6.7088    2.3983 C.ar      1 <0>        -0.0445
      6 C6         -2.0887    5.3444    2.1180 C.ar      1 <0>        -0.0570
      7 C7         -2.8775    4.8637    0.9597 C.2       1 <0>         0.1506
      8 C8         -2.5684    3.7868    0.1481 C.2       1 <0>        -0.0665
      9 N1         -3.5714    3.7156   -0.7923 N.pl3     1 <0>        -0.4537
     10 C9         -4.4407    4.7146   -0.5305 C.2       1 <0>         0.2510
     11 N2         -4.0270    5.3935    0.5033 N.2       1 <0>        -0.4676
     12 C10        -3.6771    2.7350   -1.8757 C.3       1 <0>         0.1024
     13 C11        -2.8333    3.1967   -3.0655 C.3       1 <0>        -0.1756
     14 C12        -3.0403    2.2383   -4.2400 C.3       1 <0>        -0.0011
     15 C13        -1.3965    2.8976    0.2632 C.ar      1 <0>         0.1440
     16 C14        -1.5526    1.5078    0.3520 C.ar      1 <0>        -0.1439
     17 C15        -0.4301    0.7155    0.4628 C.ar      1 <0>         0.1548
     18 C16         0.9699    2.5512    0.3896 C.ar      1 <0>         0.1542
     19 C17        -0.0957    3.4188    0.2811 C.ar      1 <0>        -0.1206
     20 F1          0.1031    6.6814    5.3410 F         1 <0>        -0.1251
     21 H1         -1.4744    3.3758    2.7242 H         1 <0>         0.1193
     22 H2         -0.1605    4.1823    4.6406 H         1 <0>         0.1431
     23 H3         -1.2271    8.2078    3.6961 H         1 <0>         0.1499
     24 H4         -2.5383    7.4175    1.7712 H         1 <0>         0.1449
     25 H5         -5.3388    4.9223   -1.0932 H         1 <0>         0.2264
     26 H6         -3.3150    1.7679   -1.5270 H         1 <0>         0.1010
     27 H7         -4.7189    2.6438   -2.1827 H         1 <0>         0.1227
     28 H8         -3.1375    4.2016   -3.3585 H         1 <0>         0.1056
     29 H9         -1.7804    3.2036   -2.7834 H         1 <0>         0.0900
     30 H10        -2.7361    1.2335   -3.9470 H         1 <0>         0.1381
     31 H11        -4.0931    2.2314   -4.5221 H         1 <0>         0.1429
     32 H12        -1.2569    2.7583   -5.1274 H         1 <0>         0.4368
     33 H13        -2.3496    2.0643   -6.1716 H         1 <0>         0.4486
     34 H14        -2.5373    1.0646    0.3378 H         1 <0>         0.1848
     35 H15        -0.5400   -0.3565    0.5355 H         1 <0>         0.2034
     36 H16         1.9762    2.9430    0.4039 H         1 <0>         0.2053
     37 H17         0.0693    4.4838    0.2112 H         1 <0>         0.1905
     38 N3         -2.2405    2.7043   -5.3866 N.4       1 <0>        -0.6473
     39 H18        -2.5647    3.6372   -5.6673 H         1 <0>         0.4450
     40 N4          0.8426    1.1988    0.4823 N.ar      1 <0>        -0.4837
     41 H19         1.6581    0.5801    0.5621 H         1 <0>         0.4841
@<TRIPOS>BOND
     1    1    6 ar
     2    1    2 ar
     3    1   21 1
     4    2    3 ar
     5    2   22 1
     6    3    4 ar
     7    3   20 1
     8    4    5 ar
     9    4   23 1
    10    5    6 ar
    11    5   24 1
    12    6    7 1
    13    7   11 1
    14    7    8 2
    15    8    9 1
    16    8   15 1
    17    9   10 1
    18    9   12 1
    19   10   11 2
    20   10   25 1
    21   12   13 1
    22   12   26 1
    23   12   27 1
    24   13   14 1
    25   13   28 1
    26   13   29 1
    27   14   30 1
    28   14   31 1
    29   14   38 1
    30   15   19 ar
    31   15   16 ar
    32   16   17 ar
    33   16   34 1
    34   17   35 1
    35   17   40 ar
    36   18   19 ar
    37   18   36 1
    38   18   40 ar
    39   19   37 1
    40   32   38 1
    41   33   38 1
    42   38   39 1
    43   40   41 1
@<TRIPOS>MOLECULE
ZINC03810102
   53    56     0     0     0
SMALL
USER_CHARGES

@<TRIPOS>ATOM
      1 C1         -0.0102    3.1595   -9.7908 C.ar      1 <0>        -0.0805
      2 C2          0.5152    2.2655   -8.8767 C.ar      1 <0>        -0.1142
      3 C3         -0.2593    1.8203   -7.8217 C.ar      1 <0>        -0.0926
      4 C4         -1.5593    2.2688   -7.6812 C.ar      1 <0>        -0.1716
      5 C5         -2.0865    3.1584   -8.5986 C.ar      1 <0>        -0.0925
      6 C6         -1.3103    3.6076   -9.6506 C.ar      1 <0>        -0.1145
      7 C7         -2.4038    1.7832   -6.5314 C.3       1 <0>         0.0517
      8 C8         -3.0402    2.2385   -4.2401 C.3       1 <0>        -0.0019
      9 C9         -2.8332    3.1968   -3.0655 C.3       1 <0>        -0.1707
     10 C10        -3.6770    2.7351   -1.8757 C.3       1 <0>         0.1088
     11 N1         -3.5714    3.7156   -0.7923 N.pl3     1 <0>        -0.4554
     12 C11        -4.4407    4.7146   -0.5305 C.2       1 <0>         0.2061
     13 N2         -4.0270    5.3935    0.5033 N.2       1 <0>        -0.4691
     14 C12        -2.8775    4.8637    0.9597 C.2       1 <0>         0.0899
     15 C13        -2.5684    3.7868    0.1481 C.2       1 <0>         0.0086
     16 C14        -1.3965    2.8976    0.2632 C.ar      1 <0>         0.0282
     17 C15        -1.5526    1.5078    0.3520 C.ar      1 <0>        -0.1719
     18 C16        -0.4302    0.7154    0.4628 C.ar      1 <0>         0.1079
     19 N3          0.7774    1.2482    0.4759 N.ar      1 <0>        -0.4763
     20 C17         0.9699    2.5512    0.3896 C.ar      1 <0>         0.1104
     21 C18        -0.0957    3.4187    0.2811 C.ar      1 <0>        -0.1480
     22 C19        -2.0887    5.3444    2.1180 C.ar      1 <0>        -0.0311
     23 C20        -1.4192    4.4336    2.9349 C.ar      1 <0>        -0.0712
     24 C21        -0.6824    4.8865    4.0096 C.ar      1 <0>        -0.1521
     25 C22        -0.6151    6.2430    4.2841 C.ar      1 <0>         0.1114
     26 C23        -1.2825    7.1515    3.4782 C.ar      1 <0>        -0.1526
     27 C24        -2.0179    6.7088    2.3983 C.ar      1 <0>        -0.0582
     28 F1          0.1031    6.6813    5.3411 F         1 <0>        -0.1338
     29 H1          0.5951    3.5075  -10.6148 H         1 <0>         0.1369
     30 H2          1.5309    1.9151   -8.9864 H         1 <0>         0.1370
     31 H3          0.1511    1.1219   -7.1075 H         1 <0>         0.1313
     32 H4         -3.1036    3.5054   -8.4913 H         1 <0>         0.1315
     33 H5         -1.7209    4.3058  -10.3650 H         1 <0>         0.1369
     34 H6         -2.0952    0.7752   -6.2543 H         1 <0>         0.1378
     35 H7         -3.4522    1.7732   -6.8295 H         1 <0>         0.1383
     36 H8         -2.7360    1.2336   -3.9471 H         1 <0>         0.1360
     37 H9         -4.0930    2.2316   -4.5222 H         1 <0>         0.1378
     38 H10        -3.1374    4.2017   -3.3585 H         1 <0>         0.0988
     39 H11        -1.7804    3.2037   -2.7833 H         1 <0>         0.0949
     40 H12        -3.3150    1.7679   -1.5270 H         1 <0>         0.1028
     41 H13        -4.7189    2.6438   -2.1828 H         1 <0>         0.1114
     42 H14        -5.3387    4.9224   -1.0933 H         1 <0>         0.2141
     43 H15        -2.5374    1.0646    0.3378 H         1 <0>         0.1334
     44 H16        -0.5401   -0.3565    0.5355 H         1 <0>         0.1610
     45 H17         1.9762    2.9429    0.4040 H         1 <0>         0.1629
     46 H18         0.0693    4.4838    0.2113 H         1 <0>         0.1391
     47 H19        -1.4744    3.3758    2.7242 H         1 <0>         0.1266
     48 H20        -0.1606    4.1823    4.6406 H         1 <0>         0.1396
     49 H21        -1.2270    8.2078    3.6961 H         1 <0>         0.1419
     50 H22        -2.5382    7.4175    1.7712 H         1 <0>         0.1383
     51 N4         -2.2237    2.6904   -5.3824 N.4       1 <0>        -0.5184
     52 H23        -2.5122    3.6385   -5.6509 H         1 <0>         0.4329
     53 H24        -1.2340    2.6985   -5.1091 H         1 <0>         0.4328
@<TRIPOS>BOND
     1    1    6 ar
     2    1    2 ar
     3    1   29 1
     4    2    3 ar
     5    2   30 1
     6    3    4 ar
     7    3   31 1
     8    4    5 ar
     9    4    7 1
    10    5    6 ar
    11    5   32 1
    12    6   33 1
    13    7   34 1
    14    7   35 1
    15    7   51 1
    16    8    9 1
    17    8   36 1
    18    8   37 1
    19    8   51 1
    20    9   10 1
    21    9   38 1
    22    9   39 1
    23   10   11 1
    24   10   40 1
    25   10   41 1
    26   11   15 1
    27   11   12 1
    28   12   13 2
    29   12   42 1
    30   13   14 1
    31   14   15 2
    32   14   22 1
    33   15   16 1
    34   16   21 ar
    35   16   17 ar
    36   17   18 ar
    37   17   43 1
    38   18   19 ar
    39   18   44 1
    40   19   20 ar
    41   20   21 ar
    42   20   45 1
    43   21   46 1
    44   22   27 ar
    45   22   23 ar
    46   23   24 ar
    47   23   47 1
    48   24   25 ar
    49   24   48 1
    50   25   26 ar
    51   25   28 1
    52   26   27 ar
    53   26   49 1
    54   27   50 1
    55   51   52 1
    56   51   53 1
@<TRIPOS>MOLECULE
ZINC03810102
   54    57     0     0     0
SMALL
USER_CHARGES

@<TRIPOS>ATOM
      1 C1         -0.0102    3.1595   -9.7908 C.ar      1 <0>        -0.0767
      2 C2          0.5152    2.2655   -8.8767 C.ar      1 <0>        -0.1143
      3 C3         -0.2593    1.8203   -7.8217 C.ar      1 <0>        -0.0945
      4 C4         -1.5593    2.2688   -7.6812 C.ar      1 <0>        -0.1763
      5 C5         -2.0865    3.1584   -8.5986 C.ar      1 <0>        -0.0911
      6 C6         -1.3103    3.6076   -9.6506 C.ar      1 <0>        -0.1120
      7 C7         -2.4038    1.7832   -6.5314 C.3       1 <0>         0.0526
      8 C8         -3.0402    2.2385   -4.2401 C.3       1 <0>        -0.0038
      9 C9         -2.8332    3.1968   -3.0655 C.3       1 <0>        -0.1723
     10 C10        -3.6770    2.7351   -1.8757 C.3       1 <0>         0.1031
     11 N1         -3.5714    3.7156   -0.7923 N.pl3     1 <0>        -0.4526
     12 C11        -4.4407    4.7146   -0.5305 C.2       1 <0>         0.2510
     13 N2         -4.0270    5.3935    0.5033 N.2       1 <0>        -0.4678
     14 C12        -2.8775    4.8637    0.9597 C.2       1 <0>         0.1496
     15 C13        -2.5684    3.7868    0.1481 C.2       1 <0>        -0.0659
     16 C14        -1.3965    2.8976    0.2632 C.ar      1 <0>         0.1445
     17 C15        -1.5526    1.5078    0.3520 C.ar      1 <0>        -0.1436
     18 C16        -0.4302    0.7154    0.4628 C.ar      1 <0>         0.1545
     19 C17         0.9699    2.5512    0.3896 C.ar      1 <0>         0.1540
     20 C18        -0.0957    3.4187    0.2811 C.ar      1 <0>        -0.1204
     21 C19        -2.0887    5.3444    2.1180 C.ar      1 <0>        -0.0560
     22 C20        -1.4192    4.4336    2.9349 C.ar      1 <0>        -0.0800
     23 C21        -0.6824    4.8865    4.0096 C.ar      1 <0>        -0.1546
     24 C22        -0.6151    6.2430    4.2841 C.ar      1 <0>         0.1274
     25 C23        -1.2825    7.1515    3.4782 C.ar      1 <0>        -0.1466
     26 C24        -2.0179    6.7088    2.3983 C.ar      1 <0>        -0.0447
     27 F1          0.1031    6.6813    5.3411 F         1 <0>        -0.1254
     28 H1          0.5951    3.5075  -10.6148 H         1 <0>         0.1392
     29 H2          1.5309    1.9151   -8.9864 H         1 <0>         0.1375
     30 H3          0.1511    1.1219   -7.1075 H         1 <0>         0.1285
     31 H4         -3.1036    3.5054   -8.4913 H         1 <0>         0.1324
     32 H5         -1.7209    4.3058  -10.3650 H         1 <0>         0.1393
     33 H6         -2.0952    0.7752   -6.2543 H         1 <0>         0.1372
     34 H7         -3.4522    1.7732   -6.8295 H         1 <0>         0.1404
     35 H8         -2.7360    1.2336   -3.9471 H         1 <0>         0.1346
     36 H9         -4.0930    2.2316   -4.5222 H         1 <0>         0.1419
     37 H10        -3.1374    4.2017   -3.3585 H         1 <0>         0.1052
     38 H11        -1.7804    3.2037   -2.7833 H         1 <0>         0.0893
     39 H12        -3.3150    1.7679   -1.5270 H         1 <0>         0.1009
     40 H13        -4.7189    2.6438   -2.1828 H         1 <0>         0.1226
     41 H14        -5.3387    4.9224   -1.0933 H         1 <0>         0.2262
     42 H15        -2.5374    1.0646    0.3378 H         1 <0>         0.1849
     43 H16        -0.5401   -0.3565    0.5355 H         1 <0>         0.2032
     44 H17         1.9762    2.9429    0.4040 H         1 <0>         0.2050
     45 H18         0.0693    4.4838    0.2113 H         1 <0>         0.1905
     46 H19        -1.4744    3.3758    2.7242 H         1 <0>         0.1194
     47 H20        -0.1606    4.1823    4.6406 H         1 <0>         0.1428
     48 H21        -1.2270    8.2078    3.6961 H         1 <0>         0.1497
     49 H22        -2.5382    7.4175    1.7712 H         1 <0>         0.1449
     50 N3         -2.2237    2.6904   -5.3824 N.4       1 <0>        -0.5189
     51 H23        -2.5122    3.6385   -5.6509 H         1 <0>         0.4356
     52 H24        -1.2340    2.6985   -5.1091 H         1 <0>         0.4297
     53 N4          0.8425    1.1988    0.4823 N.ar      1 <0>        -0.4840
     54 H25         1.6580    0.5800    0.5621 H         1 <0>         0.4838
@<TRIPOS>BOND
     1    1    6 ar
     2    1    2 ar
     3    1   28 1
     4    2    3 ar
     5    2   29 1
     6    3    4 ar
     7    3   30 1
     8    4    5 ar
     9    4    7 1
    10    5    6 ar
    11    5   31 1
    12    6   32 1
    13    7   33 1
    14    7   34 1
    15    7   50 1
    16    8    9 1
    17    8   35 1
    18    8   36 1
    19    8   50 1
    20    9   10 1
    21    9   37 1
    22    9   38 1
    23   10   11 1
    24   10   39 1
    25   10   40 1
    26   11   15 1
    27   11   12 1
    28   12   13 2
    29   12   41 1
    30   13   14 1
    31   14   15 2
    32   14   21 1
    33   15   16 1
    34   16   20 ar
    35   16   17 ar
    36   17   18 ar
    37   17   42 1
    38   18   43 1
    39   18   53 ar
    40   19   20 ar
    41   19   44 1
    42   19   53 ar
    43   20   45 1
    44   21   26 ar
    45   21   22 ar
    46   22   23 ar
    47   22   46 1
    48   23   24 ar
    49   23   47 1
    50   24   25 ar
    51   24   27 1
    52   25   26 ar
    53   25   48 1
    54   26   49 1
    55   50   51 1
    56   50   52 1
    57   53   54 1
@<TRIPOS>MOLECULE
ZINC03810103
   56    59     0     0     0
SMALL
USER_CHARGES

@<TRIPOS>ATOM
      1 C1         -1.1063    2.5923   -0.3750 C.3       1 <0>        -0.0513
      2 C2         -0.1502    0.4682   -1.0360 C.3       1 <0>        -0.0019
      3 C3         -0.9029    0.4429   -2.3678 C.3       1 <0>        -0.1704
      4 C4         -0.0620   -0.2902   -3.4150 C.3       1 <0>         0.1091
      5 N1         -0.7634   -0.2767   -4.7011 N.pl3     1 <0>        -0.4549
      6 C5         -0.5630    0.5952   -5.7121 C.2       1 <0>         0.2061
      7 N2         -1.3598    0.3054   -6.7029 N.2       1 <0>        -0.4691
      8 C6         -2.1170   -0.7578   -6.3761 C.2       1 <0>         0.0896
      9 C7         -1.7527   -1.1472   -5.0995 C.2       1 <0>         0.0085
     10 C8         -2.3120   -2.2695   -4.3217 C.ar      1 <0>         0.0281
     11 C9         -1.4795   -3.2652   -3.7931 C.ar      1 <0>        -0.1716
     12 C10        -2.0444   -4.2929   -3.0687 C.ar      1 <0>         0.1076
     13 N3         -3.3494   -4.3518   -2.8797 N.ar      1 <0>        -0.4762
     14 C11        -4.1700   -3.4384   -3.3640 C.ar      1 <0>         0.1101
     15 C12        -3.6912   -2.3729   -4.0958 C.ar      1 <0>        -0.1479
     16 C13        -3.1497   -1.3943   -7.2266 C.ar      1 <0>        -0.0309
     17 C14        -3.3377   -2.7755   -7.1833 C.ar      1 <0>        -0.0713
     18 C15        -4.3036   -3.3630   -7.9739 C.ar      1 <0>        -0.1521
     19 C16        -5.0794   -2.5842   -8.8175 C.ar      1 <0>         0.1114
     20 C17        -4.8931   -1.2121   -8.8676 C.ar      1 <0>        -0.1527
     21 C18        -3.9331   -0.6148   -8.0773 C.ar      1 <0>        -0.0582
     22 F1         -6.0203   -3.1648   -9.5940 F         1 <0>        -0.1339
     23 C19        -0.3822    1.0132    1.3117 C.3       1 <0>         0.0499
     24 C20        -1.3548    1.5315    2.3396 C.ar      1 <0>        -0.1663
     25 C21        -1.3046    2.8558    2.7327 C.ar      1 <0>        -0.0949
     26 C22        -2.2001    3.3325    3.6717 C.ar      1 <0>        -0.1141
     27 C23        -3.1388    2.4822    4.2256 C.ar      1 <0>        -0.0820
     28 C24        -3.1853    1.1565    3.8367 C.ar      1 <0>        -0.1129
     29 C25        -2.2935    0.6812    2.8935 C.ar      1 <0>        -0.0939
     30 H1         -0.1294    3.0754   -0.3541 H         1 <0>         0.1261
     31 H2         -1.5342    2.6811   -1.3736 H         1 <0>         0.1215
     32 H3         -1.7655    3.0741    0.3470 H         1 <0>         0.1241
     33 H4          0.8004    0.9855   -1.1657 H         1 <0>         0.1381
     34 H5          0.0344   -0.5533   -0.7035 H         1 <0>         0.1334
     35 H6         -1.8535   -0.0745   -2.2382 H         1 <0>         0.0940
     36 H7         -1.0875    1.4644   -2.7003 H         1 <0>         0.0989
     37 H8          0.9014    0.2085   -3.5213 H         1 <0>         0.1115
     38 H9          0.0954   -1.3210   -3.0978 H         1 <0>         0.1024
     39 H10         0.1500    1.4063   -5.7029 H         1 <0>         0.2139
     40 H11        -0.4113   -3.2259   -3.9477 H         1 <0>         0.1334
     41 H12        -1.4109   -5.0629   -2.6538 H         1 <0>         0.1609
     42 H13        -5.2313   -3.5272   -3.1847 H         1 <0>         0.1628
     43 H14        -4.3684   -1.6291   -4.4887 H         1 <0>         0.1391
     44 H15        -2.7305   -3.3838   -6.5294 H         1 <0>         0.1266
     45 H16        -4.4523   -4.4321   -7.9386 H         1 <0>         0.1396
     46 H17        -5.5003   -0.6093   -9.5267 H         1 <0>         0.1418
     47 H18        -3.7882    0.4547   -8.1176 H         1 <0>         0.1384
     48 H19        -0.1833   -0.0419    1.4993 H         1 <0>         0.1353
     49 H20         0.5491    1.5757    1.3766 H         1 <0>         0.1383
     50 H21        -0.5683    3.5191    2.3032 H         1 <0>         0.1310
     51 H22        -2.1640    4.3683    3.9753 H         1 <0>         0.1367
     52 H23        -3.8360    2.8538    4.9620 H         1 <0>         0.1367
     53 H24        -3.9187    0.4922    4.2694 H         1 <0>         0.1368
     54 H25        -2.3298   -0.3545    2.5896 H         1 <0>         0.1308
     55 N4         -0.9837    1.1602   -0.0304 N.4       1 <0>        -0.3947
     56 H26        -1.9193    0.7372   -0.0247 H         1 <0>         0.4288
@<TRIPOS>BOND
     1    1   30 1
     2    1   31 1
     3    1   32 1
     4    1   55 1
     5    2    3 1
     6    2   33 1
     7    2   34 1
     8    2   55 1
     9    3    4 1
    10    3   35 1
    11    3   36 1
    12    4    5 1
    13    4   37 1
    14    4   38 1
    15    5    9 1
    16    5    6 1
    17    6    7 2
    18    6   39 1
    19    7    8 1
    20    8    9 2
    21    8   16 1
    22    9   10 1
    23   10   15 ar
    24   10   11 ar
    25   11   12 ar
    26   11   40 1
    27   12   13 ar
    28   12   41 1
    29   13   14 ar
    30   14   15 ar
    31   14   42 1
    32   15   43 1
    33   16   21 ar
    34   16   17 ar
    35   17   18 ar
    36   17   44 1
    37   18   19 ar
    38   18   45 1
    39   19   20 ar
    40   19   22 1
    41   20   21 ar
    42   20   46 1
    43   21   47 1
    44   23   24 1
    45   23   48 1
    46   23   49 1
    47   23   55 1
    48   24   29 ar
    49   24   25 ar
    50   25   26 ar
    51   25   50 1
    52   26   27 ar
    53   26   51 1
    54   27   28 ar
    55   27   52 1
    56   28   29 ar
    57   28   53 1
    58   29   54 1
    59   55   56 1
@<TRIPOS>MOLECULE
ZINC03810103
   57    60     0     0     0
SMALL
USER_CHARGES

@<TRIPOS>ATOM
      1 C1         -1.1063    2.5923   -0.3750 C.3       1 <0>        -0.0525
      2 C2         -0.1502    0.4682   -1.0360 C.3       1 <0>        -0.0024
      3 C3         -0.9029    0.4429   -2.3678 C.3       1 <0>        -0.1762
      4 C4         -0.0620   -0.2902   -3.4150 C.3       1 <0>         0.0973
      5 N1         -0.7634   -0.2767   -4.7011 N.pl3     1 <0>        -0.4078
      6 C5         -0.5630    0.5952   -5.7121 C.cat     1 <0>         0.3015
      7 C6         -2.1170   -0.7578   -6.3761 C.2       1 <0>         0.1271
      8 C7         -1.7527   -1.1472   -5.0995 C.2       1 <0>         0.0939
      9 C8         -2.3120   -2.2695   -4.3217 C.ar      1 <0>        -0.0200
     10 C9         -1.4795   -3.2652   -3.7931 C.ar      1 <0>        -0.1559
     11 C10        -2.0444   -4.2929   -3.0687 C.ar      1 <0>         0.1185
     12 N2         -3.3494   -4.3518   -2.8797 N.ar      1 <0>        -0.4546
     13 C11        -4.1700   -3.4384   -3.3640 C.ar      1 <0>         0.1203
     14 C12        -3.6912   -2.3729   -4.0958 C.ar      1 <0>        -0.1342
     15 C13        -3.1497   -1.3943   -7.2266 C.ar      1 <0>        -0.0953
     16 C14        -3.3377   -2.7755   -7.1833 C.ar      1 <0>        -0.0438
     17 C15        -4.3036   -3.3630   -7.9739 C.ar      1 <0>        -0.1468
     18 C16        -5.0794   -2.5842   -8.8175 C.ar      1 <0>         0.1507
     19 C17        -4.8931   -1.2121   -8.8676 C.ar      1 <0>        -0.1465
     20 C18        -3.9331   -0.6148   -8.0773 C.ar      1 <0>        -0.0600
     21 F1         -6.0203   -3.1648   -9.5940 F         1 <0>        -0.1162
     22 C19        -0.3822    1.0132    1.3117 C.3       1 <0>         0.0510
     23 C20        -1.3548    1.5315    2.3396 C.ar      1 <0>        -0.1722
     24 C21        -1.3046    2.8558    2.7327 C.ar      1 <0>        -0.0948
     25 C22        -2.2001    3.3325    3.6717 C.ar      1 <0>        -0.1126
     26 C23        -3.1388    2.4822    4.2256 C.ar      1 <0>        -0.0776
     27 C24        -3.1853    1.1565    3.8367 C.ar      1 <0>        -0.1120
     28 C25        -2.2935    0.6812    2.8935 C.ar      1 <0>        -0.0939
     29 H1         -0.1294    3.0754   -0.3541 H         1 <0>         0.1286
     30 H2         -1.5342    2.6811   -1.3736 H         1 <0>         0.1174
     31 H3         -1.7655    3.0741    0.3470 H         1 <0>         0.1285
     32 H4          0.8004    0.9855   -1.1657 H         1 <0>         0.1429
     33 H5          0.0344   -0.5533   -0.7035 H         1 <0>         0.1386
     34 H6         -1.8535   -0.0745   -2.2382 H         1 <0>         0.1027
     35 H7         -1.0875    1.4644   -2.7003 H         1 <0>         0.1052
     36 H8          0.9014    0.2085   -3.5213 H         1 <0>         0.1373
     37 H9          0.0954   -1.3210   -3.0978 H         1 <0>         0.1302
     38 H10         0.1500    1.4063   -5.7029 H         1 <0>         0.2668
     39 H11        -0.4113   -3.2259   -3.9477 H         1 <0>         0.1415
     40 H12        -1.4109   -5.0629   -2.6538 H         1 <0>         0.1721
     41 H13        -5.2313   -3.5272   -3.1847 H         1 <0>         0.1731
     42 H14        -4.3684   -1.6291   -4.4887 H         1 <0>         0.1458
     43 H15        -2.7305   -3.3838   -6.5294 H         1 <0>         0.1374
     44 H16        -4.4523   -4.4321   -7.9386 H         1 <0>         0.1542
     45 H17        -5.5003   -0.6093   -9.5267 H         1 <0>         0.1552
     46 H18        -3.7882    0.4547   -8.1176 H         1 <0>         0.1378
     47 H19        -0.1833   -0.0419    1.4993 H         1 <0>         0.1371
     48 H20         0.5491    1.5757    1.3766 H         1 <0>         0.1405
     49 H21        -0.5683    3.5191    2.3032 H         1 <0>         0.1310
     50 H22        -2.1640    4.3683    3.9753 H         1 <0>         0.1386
     51 H23        -3.8360    2.8538    4.9620 H         1 <0>         0.1390
     52 H24        -3.9187    0.4922    4.2694 H         1 <0>         0.1384
     53 H25        -2.3298   -0.3545    2.5896 H         1 <0>         0.1302
     54 N3         -0.9837    1.1602   -0.0304 N.4       1 <0>        -0.3953
     55 H26        -1.9193    0.7372   -0.0247 H         1 <0>         0.4294
     56 N4         -1.3598    0.3057   -6.7034 N.pl3     1 <0>        -0.4754
     57 H27        -1.4028    0.8113   -7.5960 H         1 <0>         0.4862
@<TRIPOS>BOND
     1    1   29 1
     2    1   30 1
     3    1   31 1
     4    1   54 1
     5    2    3 1
     6    2   32 1
     7    2   33 1
     8    2   54 1
     9    3    4 1
    10    3   34 1
    11    3   35 1
    12    4    5 1
    13    4   36 1
    14    4   37 1
    15    5    8 1
    16    5    6 1
    17    6   38 1
    18    6   56 2
    19    7    8 2
    20    7   15 1
    21    7   56 1
    22    8    9 1
    23    9   14 ar
    24    9   10 ar
    25   10   11 ar
    26   10   39 1
    27   11   12 ar
    28   11   40 1
    29   12   13 ar
    30   13   14 ar
    31   13   41 1
    32   14   42 1
    33   15   20 ar
    34   15   16 ar
    35   16   17 ar
    36   16   43 1
    37   17   18 ar
    38   17   44 1
    39   18   19 ar
    40   18   21 1
    41   19   20 ar
    42   19   45 1
    43   20   46 1
    44   22   23 1
    45   22   47 1
    46   22   48 1
    47   22   54 1
    48   23   28 ar
    49   23   24 ar
    50   24   25 ar
    51   24   49 1
    52   25   26 ar
    53   25   50 1
    54   26   27 ar
    55   26   51 1
    56   27   28 ar
    57   27   52 1
    58   28   53 1
    59   54   55 1
    60   56   57 1
@<TRIPOS>MOLECULE
ZINC03810104
   50    53     0     0     0
SMALL
USER_CHARGES

@<TRIPOS>ATOM
      1 C1          6.3683    3.7173   -2.1788 C.ar      1 <0>        -0.0727
      2 C2          7.5825    3.7600   -2.8322 C.ar      1 <0>        -0.1527
      3 C3          8.6019    4.5668   -2.3526 C.ar      1 <0>         0.1115
      4 C4          8.4057    5.3379   -1.2182 C.ar      1 <0>        -0.1516
      5 C5          7.1933    5.3061   -0.5609 C.ar      1 <0>        -0.0574
      6 C6          6.1641    4.4960   -1.0400 C.ar      1 <0>        -0.0307
      7 C7          4.8600    4.4582   -0.3379 C.2       1 <0>         0.0895
      8 C8          3.6159    4.3197   -0.9270 C.2       1 <0>         0.0084
      9 N1          2.7010    4.3363    0.1016 N.pl3     1 <0>        -0.4545
     10 C9          3.3912    4.4858    1.2522 C.2       1 <0>         0.2053
     11 N2          4.6671    4.5518    0.9905 N.2       1 <0>        -0.4686
     12 C10         1.2465    4.2195   -0.0288 C.3       1 <0>         0.1105
     13 C11         0.8446    2.7451    0.0445 C.3       1 <0>        -0.1736
     14 C12        -0.6559    2.6116   -0.2232 C.3       1 <0>         0.0034
     15 C13        -0.5857    0.5825    1.1207 C.3       1 <0>        -0.0111
     16 C14        -1.4933   -0.6656    1.2581 C.3       1 <0>        -0.1477
     17 C15        -2.8533   -0.1651    0.7196 C.3       1 <0>        -0.1473
     18 C16        -2.5131    1.0462   -0.1683 C.3       1 <0>        -0.0100
     19 C17         3.3277    4.1819   -2.3675 C.ar      1 <0>         0.0308
     20 C18         3.7606    5.1490   -3.2846 C.ar      1 <0>        -0.1418
     21 C19         3.4730    4.9775   -4.6217 C.ar      1 <0>         0.1164
     22 N3          2.7922    3.9267   -5.0396 N.ar      1 <0>        -0.4752
     23 C20         2.3614    2.9951   -4.2097 C.ar      1 <0>         0.1049
     24 C21         2.6082    3.0831   -2.8564 C.ar      1 <0>        -0.1787
     25 F1          9.7910    4.6013   -2.9928 F         1 <0>        -0.1337
     26 H1          5.5758    3.0848   -2.5508 H         1 <0>         0.1254
     27 H2          7.7404    3.1602   -3.7163 H         1 <0>         0.1391
     28 H3          9.2035    5.9647   -0.8477 H         1 <0>         0.1424
     29 H4          7.0415    5.9072    0.3234 H         1 <0>         0.1392
     30 H5          2.9540    4.5394    2.2383 H         1 <0>         0.2137
     31 H6          0.9332    4.6343   -0.9868 H         1 <0>         0.1020
     32 H7          0.7640    4.7683    0.7800 H         1 <0>         0.1106
     33 H8          1.0728    2.3552    1.0364 H         1 <0>         0.1000
     34 H9          1.3990    2.1797   -0.7046 H         1 <0>         0.0958
     35 H10        -0.8841    3.0015   -1.2152 H         1 <0>         0.1357
     36 H11        -1.2103    3.1770    0.5258 H         1 <0>         0.1335
     37 H12         0.4623    0.2906    1.0535 H         1 <0>         0.1364
     38 H13        -0.7430    1.2662    1.9550 H         1 <0>         0.1346
     39 H14        -1.5791   -0.9671    2.3020 H         1 <0>         0.1168
     40 H15        -1.1154   -1.4863    0.6483 H         1 <0>         0.0987
     41 H16        -3.4978    0.1394    1.5443 H         1 <0>         0.1040
     42 H17        -3.3359   -0.9436    0.1288 H         1 <0>         0.1059
     43 H18        -2.9820    1.9445    0.2335 H         1 <0>         0.1318
     44 H19        -2.8576    0.8683   -1.1870 H         1 <0>         0.1347
     45 H20         4.3141    6.0136   -2.9493 H         1 <0>         0.1419
     46 H21         3.8058    5.7152   -5.3369 H         1 <0>         0.1657
     47 H22         1.8075    2.1524   -4.5962 H         1 <0>         0.1574
     48 H23         2.2530    2.3169   -2.1833 H         1 <0>         0.1252
     49 N4         -1.0554    1.1744   -0.1418 N.4       1 <0>        -0.3951
     50 H24        -0.6482    0.6664   -0.9357 H         1 <0>         0.4308
@<TRIPOS>BOND
     1    1    6 ar
     2    1    2 ar
     3    1   26 1
     4    2    3 ar
     5    2   27 1
     6    3    4 ar
     7    3   25 1
     8    4    5 ar
     9    4   28 1
    10    5    6 ar
    11    5   29 1
    12    6    7 1
    13    7   11 1
    14    7    8 2
    15    8    9 1
    16    8   19 1
    17    9   10 1
    18    9   12 1
    19   10   11 2
    20   10   30 1
    21   12   13 1
    22   12   31 1
    23   12   32 1
    24   13   14 1
    25   13   33 1
    26   13   34 1
    27   14   35 1
    28   14   36 1
    29   14   49 1
    30   15   16 1
    31   15   37 1
    32   15   38 1
    33   15   49 1
    34   16   17 1
    35   16   39 1
    36   16   40 1
    37   17   18 1
    38   17   41 1
    39   17   42 1
    40   18   43 1
    41   18   44 1
    42   18   49 1
    43   19   24 ar
    44   19   20 ar
    45   20   21 ar
    46   20   45 1
    47   21   22 ar
    48   21   46 1
    49   22   23 ar
    50   23   24 ar
    51   23   47 1
    52   24   48 1
    53   49   50 1
@<TRIPOS>MOLECULE
ZINC03810104
   51    54     0     0     0
SMALL
USER_CHARGES

@<TRIPOS>ATOM
      1 C1          6.3683    3.7173   -2.1788 C.ar      1 <0>        -0.0815
      2 C2          7.5825    3.7600   -2.8322 C.ar      1 <0>        -0.1552
      3 C3          8.6019    4.5668   -2.3526 C.ar      1 <0>         0.1273
      4 C4          8.4057    5.3379   -1.2182 C.ar      1 <0>        -0.1456
      5 C5          7.1933    5.3061   -0.5609 C.ar      1 <0>        -0.0439
      6 C6          6.1641    4.4960   -1.0400 C.ar      1 <0>        -0.0553
      7 C7          4.8600    4.4582   -0.3379 C.2       1 <0>         0.1483
      8 C8          3.6159    4.3197   -0.9270 C.2       1 <0>        -0.0663
      9 N1          2.7010    4.3363    0.1016 N.pl3     1 <0>        -0.4517
     10 C9          3.3912    4.4858    1.2522 C.2       1 <0>         0.2495
     11 N2          4.6671    4.5518    0.9905 N.2       1 <0>        -0.4671
     12 C10         1.2465    4.2195   -0.0288 C.3       1 <0>         0.1045
     13 C11         0.8446    2.7451    0.0445 C.3       1 <0>        -0.1750
     14 C12        -0.6559    2.6116   -0.2232 C.3       1 <0>         0.0013
     15 C13        -0.5857    0.5825    1.1207 C.3       1 <0>        -0.0126
     16 C14        -1.4933   -0.6656    1.2581 C.3       1 <0>        -0.1481
     17 C15        -2.8533   -0.1651    0.7196 C.3       1 <0>        -0.1489
     18 C16        -2.5131    1.0462   -0.1683 C.3       1 <0>        -0.0103
     19 C17         3.3277    4.1819   -2.3675 C.ar      1 <0>         0.1476
     20 C18         3.7606    5.1490   -3.2846 C.ar      1 <0>        -0.1135
     21 C19         3.4730    4.9775   -4.6217 C.ar      1 <0>         0.1607
     22 C20         2.3614    2.9951   -4.2097 C.ar      1 <0>         0.1509
     23 C21         2.6082    3.0831   -2.8564 C.ar      1 <0>        -0.1516
     24 F1          9.7910    4.6013   -2.9928 F         1 <0>        -0.1253
     25 H1          5.5758    3.0848   -2.5508 H         1 <0>         0.1180
     26 H2          7.7404    3.1602   -3.7163 H         1 <0>         0.1423
     27 H3          9.2035    5.9647   -0.8477 H         1 <0>         0.1502
     28 H4          7.0415    5.9072    0.3234 H         1 <0>         0.1457
     29 H5          2.9540    4.5394    2.2383 H         1 <0>         0.2257
     30 H6          0.9332    4.6343   -0.9868 H         1 <0>         0.1006
     31 H7          0.7640    4.7683    0.7800 H         1 <0>         0.1217
     32 H8          1.0728    2.3552    1.0364 H         1 <0>         0.1080
     33 H9          1.3990    2.1797   -0.7046 H         1 <0>         0.0893
     34 H10        -0.8841    3.0015   -1.2152 H         1 <0>         0.1333
     35 H11        -1.2103    3.1770    0.5258 H         1 <0>         0.1380
     36 H12         0.4623    0.2906    1.0535 H         1 <0>         0.1366
     37 H13        -0.7430    1.2662    1.9550 H         1 <0>         0.1368
     38 H14        -1.5791   -0.9671    2.3020 H         1 <0>         0.1198
     39 H15        -1.1154   -1.4863    0.6483 H         1 <0>         0.0995
     40 H16        -3.4978    0.1394    1.5443 H         1 <0>         0.1067
     41 H17        -3.3359   -0.9436    0.1288 H         1 <0>         0.1080
     42 H18        -2.9820    1.9445    0.2335 H         1 <0>         0.1336
     43 H19        -2.8576    0.8683   -1.1870 H         1 <0>         0.1351
     44 H20         4.3141    6.0136   -2.9493 H         1 <0>         0.1931
     45 H21         3.8058    5.7152   -5.3369 H         1 <0>         0.2078
     46 H22         1.8075    2.1524   -4.5962 H         1 <0>         0.2002
     47 H23         2.2530    2.3169   -2.1833 H         1 <0>         0.1759
     48 N3         -1.0554    1.1744   -0.1418 N.4       1 <0>        -0.3948
     49 H24        -0.6482    0.6664   -0.9357 H         1 <0>         0.4279
     50 N4          2.7762    3.9191   -5.1196 N.ar      1 <0>        -0.4820
     51 H25         2.5754    3.8233   -6.1220 H         1 <0>         0.4846
@<TRIPOS>BOND
     1    1    6 ar
     2    1    2 ar
     3    1   25 1
     4    2    3 ar
     5    2   26 1
     6    3    4 ar
     7    3   24 1
     8    4    5 ar
     9    4   27 1
    10    5    6 ar
    11    5   28 1
    12    6    7 1
    13    7   11 1
    14    7    8 2
    15    8    9 1
    16    8   19 1
    17    9   10 1
    18    9   12 1
    19   10   11 2
    20   10   29 1
    21   12   13 1
    22   12   30 1
    23   12   31 1
    24   13   14 1
    25   13   32 1
    26   13   33 1
    27   14   34 1
    28   14   35 1
    29   14   48 1
    30   15   16 1
    31   15   36 1
    32   15   37 1
    33   15   48 1
    34   16   17 1
    35   16   38 1
    36   16   39 1
    37   17   18 1
    38   17   40 1
    39   17   41 1
    40   18   42 1
    41   18   43 1
    42   18   48 1
    43   19   23 ar
    44   19   20 ar
    45   20   21 ar
    46   20   44 1
    47   21   45 1
    48   21   50 ar
    49   22   23 ar
    50   22   46 1
    51   22   50 ar
    52   23   47 1
    53   48   49 1
    54   50   51 1
@<TRIPOS>MOLECULE
ZINC03815615
   48    51     0     0     0
SMALL
USER_CHARGES

@<TRIPOS>ATOM
      1 C1          0.1867    2.5647    1.7037 C.ar      1 <0>        -0.0741
      2 C2         -0.5969    3.2091    2.6385 C.ar      1 <0>        -0.0813
      3 C3         -1.5990    2.5057    3.3087 C.ar      1 <0>        -0.0107
      4 C4         -1.8052    1.1550    3.0236 C.ar      1 <0>        -0.1214
      5 C5         -1.0183    0.5240    2.0824 C.ar      1 <0>        -0.0895
      6 C6         -0.0265    1.2270    1.4217 C.ar      1 <0>        -0.1100
      7 C7          0.8292    0.5312    0.3948 C.3       1 <0>         0.1990
      8 N1          0.2039    0.6517   -0.9246 N.am      1 <0>        -0.4844
      9 C8          0.2531    1.8232   -1.5892 C.2       1 <0>         0.6982
     10 O1          0.7334    2.8048   -1.0562 O.2       1 <0>        -0.5634
     11 N2         -0.2302    1.9066   -2.8445 N.am      1 <0>        -0.8664
     12 O2         -0.4521   -0.4627   -1.5016 O.3       1 <0>        -0.3301
     13 C9         -2.4382    3.1883    4.3165 C.2       1 <0>         0.2390
     14 N3         -2.3307    4.4992    4.6779 N.2       1 <0>        -0.4476
     15 H1         -3.6941    1.6743    4.9266 H         1 <0>         0.4287
     16 C10        -3.2887    4.7357    5.6380 C.2       1 <0>         0.0593
     17 C11        -3.9494    3.5339    5.8348 C.2       1 <0>         0.0273
     18 N4         -3.4062    2.6287    5.0065 N.pl3     1 <0>        -0.5074
     19 C12        -5.0642    3.2944    6.7811 C.ar      1 <0>        -0.0335
     20 C13        -5.0163    3.8291    8.0682 C.ar      1 <0>        -0.0598
     21 C14        -6.0586    3.6069    8.9441 C.ar      1 <0>        -0.1455
     22 C15        -7.1473    2.8458    8.5501 C.ar      1 <0>         0.1087
     23 C16        -7.1971    2.3081    7.2741 C.ar      1 <0>        -0.1477
     24 C17        -6.1619    2.5287    6.3894 C.ar      1 <0>        -0.0829
     25 F1         -8.1635    2.6271    9.4131 F         1 <0>        -0.1346
     26 C18        -3.5528    6.0126    6.3272 C.ar      1 <0>         0.0425
     27 C19        -4.8574    6.5122    6.4440 C.ar      1 <0>        -0.1531
     28 C20        -5.0584    7.7069    7.1012 C.ar      1 <0>         0.1014
     29 N5         -4.0431    8.3824    7.6063 N.ar      1 <0>        -0.4832
     30 C21        -2.7988    7.9514    7.5142 C.ar      1 <0>         0.1008
     31 C22        -2.5059    6.7638    6.8789 C.ar      1 <0>        -0.1470
     32 H2          0.9654    3.1067    1.1876 H         1 <0>         0.1434
     33 H3         -0.4323    4.2544    2.8545 H         1 <0>         0.1387
     34 H4         -2.5787    0.6051    3.5389 H         1 <0>         0.1177
     35 H5         -1.1765   -0.5212    1.8611 H         1 <0>         0.1289
     36 H6          0.9258   -0.5226    0.6561 H         1 <0>         0.1037
     37 H7          1.8167    0.9920    0.3722 H         1 <0>         0.1022
     38 H8         -0.6781    1.1443   -3.2435 H         1 <0>         0.3929
     39 H9         -0.1302    2.7290   -3.3491 H         1 <0>         0.4226
     40 H10        -0.7650   -0.3110   -2.4040 H         1 <0>         0.3809
     41 H11        -4.1661    4.4190    8.3775 H         1 <0>         0.1351
     42 H12        -6.0240    4.0235    9.9400 H         1 <0>         0.1425
     43 H13        -8.0475    1.7148    6.9718 H         1 <0>         0.1412
     44 H14        -6.2013    2.1087    5.3951 H         1 <0>         0.1311
     45 H15        -5.6924    5.9671    6.0292 H         1 <0>         0.1331
     46 H16        -6.0602    8.0982    7.2001 H         1 <0>         0.1576
     47 H17        -1.9992    8.5377    7.9422 H         1 <0>         0.1588
     48 H18        -1.4855    6.4173    6.8076 H         1 <0>         0.1382
@<TRIPOS>BOND
     1    1    6 ar
     2    1    2 ar
     3    1   32 1
     4    2    3 ar
     5    2   33 1
     6    3    4 ar
     7    3   13 1
     8    4    5 ar
     9    4   34 1
    10    5    6 ar
    11    5   35 1
    12    6    7 1
    13    7    8 1
    14    7   36 1
    15    7   37 1
    16    8    9 am
    17    8   12 1
    18    9   10 2
    19    9   11 am
    20   11   38 1
    21   11   39 1
    22   12   40 1
    23   13   14 2
    24   13   18 1
    25   14   16 1
    26   15   18 1
    27   16   17 2
    28   16   26 1
    29   17   18 1
    30   17   19 1
    31   19   24 ar
    32   19   20 ar
    33   20   21 ar
    34   20   41 1
    35   21   22 ar
    36   21   42 1
    37   22   23 ar
    38   22   25 1
    39   23   24 ar
    40   23   43 1
    41   24   44 1
    42   26   31 ar
    43   26   27 ar
    44   27   28 ar
    45   27   45 1
    46   28   29 ar
    47   28   46 1
    48   29   30 ar
    49   30   31 ar
    50   30   47 1
    51   31   48 1
@<TRIPOS>MOLECULE
ZINC03815615
   49    52     0     0     0
SMALL
USER_CHARGES

@<TRIPOS>ATOM
      1 C1          0.1867    2.5647    1.7037 C.ar      1 <0>        -0.0686
      2 C2         -0.5969    3.2091    2.6385 C.ar      1 <0>        -0.0774
      3 C3         -1.5990    2.5057    3.3087 C.ar      1 <0>        -0.0876
      4 C4         -1.8052    1.1550    3.0236 C.ar      1 <0>        -0.0816
      5 C5         -1.0183    0.5240    2.0824 C.ar      1 <0>        -0.0842
      6 C6         -0.0265    1.2270    1.4217 C.ar      1 <0>        -0.0634
      7 C7          0.8292    0.5312    0.3948 C.3       1 <0>         0.1891
      8 N1          0.2039    0.6517   -0.9246 N.am      1 <0>        -0.4874
      9 C8          0.2531    1.8232   -1.5892 C.2       1 <0>         0.7010
     10 O1          0.7334    2.8048   -1.0562 O.2       1 <0>        -0.5692
     11 N2         -0.2302    1.9066   -2.8445 N.am      1 <0>        -0.8621
     12 O2         -0.4521   -0.4627   -1.5016 O.3       1 <0>        -0.3260
     13 C9         -2.4382    3.1883    4.3165 C.cat     1 <0>         0.3943
     14 N3         -2.3307    4.4992    4.6779 N.pl3     1 <0>        -0.5081
     15 H1         -1.6783    5.1639    4.3137 H         1 <0>         0.4718
     16 C10        -3.2887    4.7357    5.6380 C.2       1 <0>         0.1157
     17 C11        -3.9557    3.5363    5.8279 C.2       1 <0>         0.1127
     18 C12        -5.0750    3.2985    6.7693 C.ar      1 <0>        -0.0836
     19 C13        -5.0322    3.8337    8.0564 C.ar      1 <0>        -0.0439
     20 C14        -6.0787    3.6131    8.9277 C.ar      1 <0>        -0.1463
     21 C15        -7.1666    2.8532    8.5292 C.ar      1 <0>         0.1421
     22 C16        -7.2113    2.3150    7.2532 C.ar      1 <0>        -0.1472
     23 C17        -6.1719    2.5340    6.3730 C.ar      1 <0>        -0.0622
     24 F1         -8.1869    2.6360    9.3877 F         1 <0>        -0.1211
     25 C18        -3.5528    6.0126    6.3272 C.ar      1 <0>        -0.0197
     26 C19        -4.8574    6.5122    6.4440 C.ar      1 <0>        -0.1302
     27 C20        -5.0584    7.7069    7.1012 C.ar      1 <0>         0.1167
     28 N4         -4.0431    8.3824    7.6063 N.ar      1 <0>        -0.4581
     29 C21        -2.7988    7.9514    7.5142 C.ar      1 <0>         0.1164
     30 C22        -2.5059    6.7638    6.8789 C.ar      1 <0>        -0.1481
     31 H2          0.9654    3.1067    1.1876 H         1 <0>         0.1589
     32 H3         -0.4323    4.2544    2.8545 H         1 <0>         0.1326
     33 H4         -2.5787    0.6051    3.5389 H         1 <0>         0.1324
     34 H5         -1.1765   -0.5212    1.8611 H         1 <0>         0.1473
     35 H6          0.9258   -0.5226    0.6561 H         1 <0>         0.1139
     36 H7          1.8167    0.9920    0.3722 H         1 <0>         0.1101
     37 H8         -0.6781    1.1443   -3.2435 H         1 <0>         0.3961
     38 H9         -0.1302    2.7290   -3.3491 H         1 <0>         0.4258
     39 H10        -0.7650   -0.3110   -2.4040 H         1 <0>         0.3863
     40 H11        -4.1827    4.4226    8.3693 H         1 <0>         0.1397
     41 H12        -6.0480    4.0300    9.9236 H         1 <0>         0.1525
     42 H13        -8.0611    1.7227    6.9473 H         1 <0>         0.1524
     43 H14        -6.2074    2.1137    5.3787 H         1 <0>         0.1381
     44 H15        -5.6924    5.9671    6.0292 H         1 <0>         0.1455
     45 H16        -6.0602    8.0982    7.2001 H         1 <0>         0.1716
     46 H17        -1.9992    8.5377    7.9422 H         1 <0>         0.1712
     47 H18        -1.4855    6.4173    6.8076 H         1 <0>         0.1425
     48 N5         -3.4102    2.6295    5.0023 N.pl3     1 <0>        -0.4786
     49 H19        -3.7066    1.6499    4.9194 H         1 <0>         0.4778
@<TRIPOS>BOND
     1    1    6 ar
     2    1    2 ar
     3    1   31 1
     4    2    3 ar
     5    2   32 1
     6    3    4 ar
     7    3   13 1
     8    4    5 ar
     9    4   33 1
    10    5    6 ar
    11    5   34 1
    12    6    7 1
    13    7    8 1
    14    7   35 1
    15    7   36 1
    16    8    9 am
    17    8   12 1
    18    9   10 2
    19    9   11 am
    20   11   37 1
    21   11   38 1
    22   12   39 1
    23   13   14 1
    24   13   48 2
    25   14   15 1
    26   14   16 1
    27   16   17 2
    28   16   25 1
    29   17   18 1
    30   17   48 1
    31   18   23 ar
    32   18   19 ar
    33   19   20 ar
    34   19   40 1
    35   20   21 ar
    36   20   41 1
    37   21   22 ar
    38   21   24 1
    39   22   23 ar
    40   22   42 1
    41   23   43 1
    42   25   30 ar
    43   25   26 ar
    44   26   27 ar
    45   26   44 1
    46   27   28 ar
    47   27   45 1
    48   28   29 ar
    49   29   30 ar
    50   29   46 1
    51   30   47 1
    52   48   49 1
@<TRIPOS>MOLECULE
ZINC03815615
   48    51     0     0     0
SMALL
USER_CHARGES

@<TRIPOS>ATOM
      1 C1          0.1867    2.5647    1.7037 C.ar      1 <0>        -0.0741
      2 C2         -0.5969    3.2091    2.6385 C.ar      1 <0>        -0.0813
      3 C3         -1.5990    2.5057    3.3087 C.ar      1 <0>        -0.0107
      4 C4         -1.8052    1.1550    3.0236 C.ar      1 <0>        -0.1214
      5 C5         -1.0183    0.5240    2.0824 C.ar      1 <0>        -0.0895
      6 C6         -0.0265    1.2270    1.4217 C.ar      1 <0>        -0.1100
      7 C7          0.8292    0.5312    0.3948 C.3       1 <0>         0.1990
      8 N1          0.2039    0.6517   -0.9246 N.am      1 <0>        -0.4844
      9 C8          0.2531    1.8232   -1.5892 C.2       1 <0>         0.6982
     10 O1          0.7334    2.8048   -1.0562 O.2       1 <0>        -0.5634
     11 N2         -0.2302    1.9066   -2.8445 N.am      1 <0>        -0.8664
     12 O2         -0.4521   -0.4627   -1.5016 O.3       1 <0>        -0.3301
     13 C9         -2.4382    3.1883    4.3165 C.2       1 <0>         0.2390
     14 N3         -2.3307    4.4992    4.6779 N.2       1 <0>        -0.4476
     15 H1         -3.6941    1.6743    4.9266 H         1 <0>         0.4287
     16 C10        -3.2887    4.7357    5.6380 C.2       1 <0>         0.0593
     17 C11        -3.9494    3.5339    5.8348 C.2       1 <0>         0.0273
     18 N4         -3.4062    2.6287    5.0065 N.pl3     1 <0>        -0.5074
     19 C12        -5.0642    3.2944    6.7811 C.ar      1 <0>        -0.0335
     20 C13        -5.0163    3.8291    8.0682 C.ar      1 <0>        -0.0598
     21 C14        -6.0586    3.6069    8.9441 C.ar      1 <0>        -0.1455
     22 C15        -7.1473    2.8458    8.5501 C.ar      1 <0>         0.1087
     23 C16        -7.1971    2.3081    7.2741 C.ar      1 <0>        -0.1477
     24 C17        -6.1619    2.5287    6.3894 C.ar      1 <0>        -0.0829
     25 F1         -8.1635    2.6271    9.4131 F         1 <0>        -0.1346
     26 C18        -3.5528    6.0126    6.3272 C.ar      1 <0>         0.0425
     27 C19        -4.8574    6.5122    6.4440 C.ar      1 <0>        -0.1531
     28 C20        -5.0584    7.7069    7.1012 C.ar      1 <0>         0.1014
     29 N5         -4.0431    8.3824    7.6063 N.ar      1 <0>        -0.4832
     30 C21        -2.7988    7.9514    7.5142 C.ar      1 <0>         0.1008
     31 C22        -2.5059    6.7638    6.8789 C.ar      1 <0>        -0.1470
     32 H2          0.9654    3.1067    1.1876 H         1 <0>         0.1434
     33 H3         -0.4323    4.2544    2.8545 H         1 <0>         0.1387
     34 H4         -2.5787    0.6051    3.5389 H         1 <0>         0.1177
     35 H5         -1.1765   -0.5212    1.8611 H         1 <0>         0.1289
     36 H6          0.9258   -0.5226    0.6561 H         1 <0>         0.1037
     37 H7          1.8167    0.9920    0.3722 H         1 <0>         0.1022
     38 H8         -0.6781    1.1443   -3.2435 H         1 <0>         0.3929
     39 H9         -0.1302    2.7290   -3.3491 H         1 <0>         0.4226
     40 H10        -0.7650   -0.3110   -2.4040 H         1 <0>         0.3809
     41 H11        -4.1661    4.4190    8.3775 H         1 <0>         0.1351
     42 H12        -6.0240    4.0235    9.9400 H         1 <0>         0.1425
     43 H13        -8.0475    1.7148    6.9718 H         1 <0>         0.1412
     44 H14        -6.2013    2.1087    5.3951 H         1 <0>         0.1311
     45 H15        -5.6924    5.9671    6.0292 H         1 <0>         0.1331
     46 H16        -6.0602    8.0982    7.2001 H         1 <0>         0.1576
     47 H17        -1.9992    8.5377    7.9422 H         1 <0>         0.1588
     48 H18        -1.4855    6.4173    6.8076 H         1 <0>         0.1382
@<TRIPOS>BOND
     1    1    6 ar
     2    1    2 ar
     3    1   32 1
     4    2    3 ar
     5    2   33 1
     6    3    4 ar
     7    3   13 1
     8    4    5 ar
     9    4   34 1
    10    5    6 ar
    11    5   35 1
    12    6    7 1
    13    7    8 1
    14    7   36 1
    15    7   37 1
    16    8    9 am
    17    8   12 1
    18    9   10 2
    19    9   11 am
    20   11   38 1
    21   11   39 1
    22   12   40 1
    23   13   14 2
    24   13   18 1
    25   14   16 1
    26   15   18 1
    27   16   17 2
    28   16   26 1
    29   17   18 1
    30   17   19 1
    31   19   24 ar
    32   19   20 ar
    33   20   21 ar
    34   20   41 1
    35   21   22 ar
    36   21   42 1
    37   22   23 ar
    38   22   25 1
    39   23   24 ar
    40   23   43 1
    41   24   44 1
    42   26   31 ar
    43   26   27 ar
    44   27   28 ar
    45   27   45 1
    46   28   29 ar
    47   28   46 1
    48   29   30 ar
    49   30   31 ar
    50   30   47 1
    51   31   48 1
@<TRIPOS>MOLECULE
ZINC03815617
   51    54     0     0     0
SMALL
USER_CHARGES

@<TRIPOS>ATOM
      1 C1         -8.4092    9.5660    2.6956 C.3       1 <0>        -0.1741
      2 C2         -6.9064    9.7519    2.9146 C.3       1 <0>         0.2278
      3 H1         -6.5836   10.6826    2.4481 H         1 <0>         0.1138
      4 C3         -6.1621    8.5960    2.2973 C.ar      1 <0>        -0.0744
      5 C4         -6.7721    7.8252    1.3237 C.ar      1 <0>        -0.0939
      6 C5         -6.0961    6.7660    0.7542 C.ar      1 <0>        -0.1080
      7 C6         -4.7941    6.4724    1.1626 C.ar      1 <0>        -0.0190
      8 C7         -4.1868    7.2502    2.1497 C.ar      1 <0>        -0.0708
      9 C8         -4.8715    8.3107    2.7063 C.ar      1 <0>        -0.1010
     10 C9         -4.0637    5.3389    0.5566 C.2       1 <0>         0.2429
     11 N1         -2.7950    4.9538    0.8773 N.2       1 <0>        -0.4501
     12 H2         -5.4437    4.6063   -0.7853 H         1 <0>         0.4290
     13 C10        -2.4882    3.8683    0.0880 C.2       1 <0>         0.0588
     14 C11        -3.6040    3.6288   -0.6975 C.2       1 <0>         0.0278
     15 N2         -4.5333    4.5420   -0.3767 N.pl3     1 <0>        -0.5078
     16 C12        -3.7478    2.5532   -1.7065 C.ar      1 <0>        -0.0323
     17 C13        -2.6511    2.1639   -2.4750 C.ar      1 <0>        -0.0622
     18 C14        -2.7889    1.1591   -3.4101 C.ar      1 <0>        -0.1449
     19 C15        -4.0167    0.5434   -3.5931 C.ar      1 <0>         0.1077
     20 C16        -5.1104    0.9304   -2.8355 C.ar      1 <0>        -0.1466
     21 C17        -4.9815    1.9309   -1.8947 C.ar      1 <0>        -0.0849
     22 F1         -4.1478   -0.4369   -4.5133 F         1 <0>        -0.1346
     23 C18        -1.2220    3.1121    0.0786 C.ar      1 <0>         0.0421
     24 C19        -1.2197    1.7103    0.0676 C.ar      1 <0>        -0.1547
     25 C20        -0.0129    1.0446    0.0645 C.ar      1 <0>         0.1012
     26 N3          1.1280    1.7086    0.0611 N.ar      1 <0>        -0.4833
     27 C21         1.1716    3.0279    0.0659 C.ar      1 <0>         0.1009
     28 C22         0.0132    3.7748    0.0747 C.ar      1 <0>        -0.1470
     29 N4         -6.6248    9.8025    4.3514 N.am      1 <0>        -0.4854
     30 C23        -6.8484    8.7185    5.1205 C.2       1 <0>         0.6983
     31 O1         -7.3699    7.7302    4.6414 O.2       1 <0>        -0.5561
     32 N5         -6.4939    8.7301    6.4208 N.am      1 <0>        -0.8676
     33 O2         -6.1178   10.9903    4.9321 O.3       1 <0>        -0.3290
     34 H3         -8.7319    8.6352    3.1622 H         1 <0>         0.0841
     35 H4         -8.9476   10.4020    3.1421 H         1 <0>         0.0649
     36 H5         -8.6187    9.5283    1.6266 H         1 <0>         0.0778
     37 H6         -7.7796    8.0534    1.0085 H         1 <0>         0.1353
     38 H7         -6.5731    6.1655   -0.0062 H         1 <0>         0.1193
     39 H8         -3.1813    7.0253    2.4735 H         1 <0>         0.1369
     40 H9         -4.4008    8.9165    3.4665 H         1 <0>         0.1239
     41 H10        -1.6948    2.6460   -2.3359 H         1 <0>         0.1357
     42 H11        -1.9393    0.8546   -4.0034 H         1 <0>         0.1425
     43 H12        -6.0656    0.4481   -2.9823 H         1 <0>         0.1413
     44 H13        -5.8348    2.2321   -1.3049 H         1 <0>         0.1306
     45 H14        -2.1493    1.1605    0.0658 H         1 <0>         0.1341
     46 H15        -0.0004   -0.0353    0.0603 H         1 <0>         0.1580
     47 H16         2.1283    3.5290    0.0625 H         1 <0>         0.1588
     48 H17         0.0566    4.8539    0.0790 H         1 <0>         0.1384
     49 H18        -6.1462    9.5422    6.8215 H         1 <0>         0.3926
     50 H19        -6.5866    7.9264    6.9559 H         1 <0>         0.4221
     51 H20        -5.8904   10.9045    5.8680 H         1 <0>         0.3810
@<TRIPOS>BOND
     1    1    2 1
     2    1   34 1
     3    1   35 1
     4    1   36 1
     5    2    3 1
     6    2    4 1
     7    2   29 1
     8    4    9 ar
     9    4    5 ar
    10    5    6 ar
    11    5   37 1
    12    6    7 ar
    13    6   38 1
    14    7    8 ar
    15    7   10 1
    16    8    9 ar
    17    8   39 1
    18    9   40 1
    19   10   11 2
    20   10   15 1
    21   11   13 1
    22   12   15 1
    23   13   14 2
    24   13   23 1
    25   14   15 1
    26   14   16 1
    27   16   21 ar
    28   16   17 ar
    29   17   18 ar
    30   17   41 1
    31   18   19 ar
    32   18   42 1
    33   19   20 ar
    34   19   22 1
    35   20   21 ar
    36   20   43 1
    37   21   44 1
    38   23   28 ar
    39   23   24 ar
    40   24   25 ar
    41   24   45 1
    42   25   26 ar
    43   25   46 1
    44   26   27 ar
    45   27   28 ar
    46   27   47 1
    47   28   48 1
    48   29   30 am
    49   29   33 1
    50   30   31 2
    51   30   32 am
    52   32   49 1
    53   32   50 1
    54   33   51 1
@<TRIPOS>MOLECULE
ZINC03815617
   52    55     0     0     0
SMALL
USER_CHARGES

@<TRIPOS>ATOM
      1 C1         -8.4092    9.5660    2.6956 C.3       1 <0>        -0.1790
      2 C2         -6.9064    9.7519    2.9146 C.3       1 <0>         0.2191
      3 H1         -6.5836   10.6826    2.4481 H         1 <0>         0.1255
      4 C3         -6.1621    8.5960    2.2973 C.ar      1 <0>        -0.0278
      5 C4         -6.7721    7.8252    1.3237 C.ar      1 <0>        -0.0892
      6 C5         -6.0961    6.7660    0.7542 C.ar      1 <0>        -0.0680
      7 C6         -4.7941    6.4724    1.1626 C.ar      1 <0>        -0.0961
      8 C7         -4.1868    7.2502    2.1497 C.ar      1 <0>        -0.0670
      9 C8         -4.8715    8.3107    2.7063 C.ar      1 <0>        -0.0957
     10 C9         -4.0637    5.3389    0.5566 C.cat     1 <0>         0.3978
     11 N1         -2.7950    4.9538    0.8773 N.pl3     1 <0>        -0.5094
     12 H2         -2.1994    5.3801    1.5581 H         1 <0>         0.4708
     13 C10        -2.4882    3.8683    0.0880 C.2       1 <0>         0.1128
     14 C11        -3.6071    3.6236   -0.6915 C.2       1 <0>         0.1144
     15 C12        -3.7531    2.5443   -1.6962 C.ar      1 <0>        -0.0821
     16 C13        -2.6577    2.1510   -2.4645 C.ar      1 <0>        -0.0466
     17 C14        -2.7975    1.1428   -3.3956 C.ar      1 <0>        -0.1459
     18 C15        -4.0261    0.5276   -3.5748 C.ar      1 <0>         0.1420
     19 C16        -5.1186    0.9185   -2.8175 C.ar      1 <0>        -0.1464
     20 C17        -4.9876    1.9225   -1.8806 C.ar      1 <0>        -0.0630
     21 F1         -4.1592   -0.4561   -4.4912 F         1 <0>        -0.1209
     22 C18        -1.2220    3.1121    0.0786 C.ar      1 <0>        -0.0189
     23 C19        -1.2197    1.7103    0.0676 C.ar      1 <0>        -0.1324
     24 C20        -0.0129    1.0446    0.0645 C.ar      1 <0>         0.1167
     25 N2          1.1280    1.7086    0.0611 N.ar      1 <0>        -0.4582
     26 C21         1.1716    3.0279    0.0659 C.ar      1 <0>         0.1167
     27 C22         0.0132    3.7748    0.0747 C.ar      1 <0>        -0.1489
     28 N3         -6.6248    9.8025    4.3514 N.am      1 <0>        -0.4889
     29 C23        -6.8484    8.7185    5.1205 C.2       1 <0>         0.6988
     30 O1         -7.3699    7.7302    4.6414 O.2       1 <0>        -0.5617
     31 N4         -6.4939    8.7301    6.4208 N.am      1 <0>        -0.8639
     32 O2         -6.1178   10.9903    4.9321 O.3       1 <0>        -0.3237
     33 H3         -8.7319    8.6352    3.1622 H         1 <0>         0.0866
     34 H4         -8.9476   10.4020    3.1421 H         1 <0>         0.0740
     35 H5         -8.6187    9.5283    1.6266 H         1 <0>         0.0807
     36 H6         -7.7796    8.0534    1.0085 H         1 <0>         0.1533
     37 H7         -6.5731    6.1655   -0.0062 H         1 <0>         0.1342
     38 H8         -3.1813    7.0253    2.4735 H         1 <0>         0.1309
     39 H9         -4.4008    8.9165    3.4665 H         1 <0>         0.1400
     40 H10        -1.7007    2.6327   -2.3284 H         1 <0>         0.1401
     41 H11        -1.9489    0.8352   -3.9887 H         1 <0>         0.1527
     42 H12        -6.0744    0.4366   -2.9613 H         1 <0>         0.1527
     43 H13        -5.8399    2.2267   -1.2910 H         1 <0>         0.1377
     44 H14        -2.1493    1.1605    0.0658 H         1 <0>         0.1466
     45 H15        -0.0004   -0.0353    0.0603 H         1 <0>         0.1720
     46 H16         2.1283    3.5290    0.0625 H         1 <0>         0.1712
     47 H17         0.0566    4.8539    0.0790 H         1 <0>         0.1420
     48 H18        -6.1462    9.5422    6.8215 H         1 <0>         0.3959
     49 H19        -6.5866    7.9264    6.9559 H         1 <0>         0.4247
     50 H20        -5.8904   10.9045    5.8680 H         1 <0>         0.3855
     51 N5         -4.5357    4.5389   -0.3734 N.pl3     1 <0>        -0.4797
     52 H21        -5.4710    4.6042   -0.7921 H         1 <0>         0.4779
@<TRIPOS>BOND
     1    1    2 1
     2    1   33 1
     3    1   34 1
     4    1   35 1
     5    2    3 1
     6    2    4 1
     7    2   28 1
     8    4    9 ar
     9    4    5 ar
    10    5    6 ar
    11    5   36 1
    12    6    7 ar
    13    6   37 1
    14    7    8 ar
    15    7   10 1
    16    8    9 ar
    17    8   38 1
    18    9   39 1
    19   10   11 1
    20   10   51 2
    21   11   12 1
    22   11   13 1
    23   13   14 2
    24   13   22 1
    25   14   15 1
    26   14   51 1
    27   15   20 ar
    28   15   16 ar
    29   16   17 ar
    30   16   40 1
    31   17   18 ar
    32   17   41 1
    33   18   19 ar
    34   18   21 1
    35   19   20 ar
    36   19   42 1
    37   20   43 1
    38   22   27 ar
    39   22   23 ar
    40   23   24 ar
    41   23   44 1
    42   24   25 ar
    43   24   45 1
    44   25   26 ar
    45   26   27 ar
    46   26   46 1
    47   27   47 1
    48   28   29 am
    49   28   32 1
    50   29   30 2
    51   29   31 am
    52   31   48 1
    53   31   49 1
    54   32   50 1
    55   51   52 1
@<TRIPOS>MOLECULE
ZINC03815617
   51    54     0     0     0
SMALL
USER_CHARGES

@<TRIPOS>ATOM
      1 C1         -8.4092    9.5660    2.6956 C.3       1 <0>        -0.1741
      2 C2         -6.9064    9.7519    2.9146 C.3       1 <0>         0.2278
      3 H1         -6.5836   10.6826    2.4481 H         1 <0>         0.1138
      4 C3         -6.1621    8.5960    2.2973 C.ar      1 <0>        -0.0744
      5 C4         -6.7721    7.8252    1.3237 C.ar      1 <0>        -0.0939
      6 C5         -6.0961    6.7660    0.7542 C.ar      1 <0>        -0.1080
      7 C6         -4.7941    6.4724    1.1626 C.ar      1 <0>        -0.0190
      8 C7         -4.1868    7.2502    2.1497 C.ar      1 <0>        -0.0708
      9 C8         -4.8715    8.3107    2.7063 C.ar      1 <0>        -0.1010
     10 C9         -4.0637    5.3389    0.5566 C.2       1 <0>         0.2429
     11 N1         -2.7950    4.9538    0.8773 N.2       1 <0>        -0.4501
     12 H2         -5.4437    4.6063   -0.7853 H         1 <0>         0.4290
     13 C10        -2.4882    3.8683    0.0880 C.2       1 <0>         0.0588
     14 C11        -3.6040    3.6288   -0.6975 C.2       1 <0>         0.0278
     15 N2         -4.5333    4.5420   -0.3767 N.pl3     1 <0>        -0.5078
     16 C12        -3.7478    2.5532   -1.7065 C.ar      1 <0>        -0.0323
     17 C13        -2.6511    2.1639   -2.4750 C.ar      1 <0>        -0.0622
     18 C14        -2.7889    1.1591   -3.4101 C.ar      1 <0>        -0.1449
     19 C15        -4.0167    0.5434   -3.5931 C.ar      1 <0>         0.1077
     20 C16        -5.1104    0.9304   -2.8355 C.ar      1 <0>        -0.1466
     21 C17        -4.9815    1.9309   -1.8947 C.ar      1 <0>        -0.0849
     22 F1         -4.1478   -0.4369   -4.5133 F         1 <0>        -0.1346
     23 C18        -1.2220    3.1121    0.0786 C.ar      1 <0>         0.0421
     24 C19        -1.2197    1.7103    0.0676 C.ar      1 <0>        -0.1547
     25 C20        -0.0129    1.0446    0.0645 C.ar      1 <0>         0.1012
     26 N3          1.1280    1.7086    0.0611 N.ar      1 <0>        -0.4833
     27 C21         1.1716    3.0279    0.0659 C.ar      1 <0>         0.1009
     28 C22         0.0132    3.7748    0.0747 C.ar      1 <0>        -0.1470
     29 N4         -6.6248    9.8025    4.3514 N.am      1 <0>        -0.4854
     30 C23        -6.8484    8.7185    5.1205 C.2       1 <0>         0.6983
     31 O1         -7.3699    7.7302    4.6414 O.2       1 <0>        -0.5561
     32 N5         -6.4939    8.7301    6.4208 N.am      1 <0>        -0.8676
     33 O2         -6.1178   10.9903    4.9321 O.3       1 <0>        -0.3290
     34 H3         -8.7319    8.6352    3.1622 H         1 <0>         0.0841
     35 H4         -8.9476   10.4020    3.1421 H         1 <0>         0.0649
     36 H5         -8.6187    9.5283    1.6266 H         1 <0>         0.0778
     37 H6         -7.7796    8.0534    1.0085 H         1 <0>         0.1353
     38 H7         -6.5731    6.1655   -0.0062 H         1 <0>         0.1193
     39 H8         -3.1813    7.0253    2.4735 H         1 <0>         0.1369
     40 H9         -4.4008    8.9165    3.4665 H         1 <0>         0.1239
     41 H10        -1.6948    2.6460   -2.3359 H         1 <0>         0.1357
     42 H11        -1.9393    0.8546   -4.0034 H         1 <0>         0.1425
     43 H12        -6.0656    0.4481   -2.9823 H         1 <0>         0.1413
     44 H13        -5.8348    2.2321   -1.3049 H         1 <0>         0.1306
     45 H14        -2.1493    1.1605    0.0658 H         1 <0>         0.1341
     46 H15        -0.0004   -0.0353    0.0603 H         1 <0>         0.1580
     47 H16         2.1283    3.5290    0.0625 H         1 <0>         0.1588
     48 H17         0.0566    4.8539    0.0790 H         1 <0>         0.1384
     49 H18        -6.1462    9.5422    6.8215 H         1 <0>         0.3926
     50 H19        -6.5866    7.9264    6.9559 H         1 <0>         0.4221
     51 H20        -5.8904   10.9045    5.8680 H         1 <0>         0.3810
@<TRIPOS>BOND
     1    1    2 1
     2    1   34 1
     3    1   35 1
     4    1   36 1
     5    2    3 1
     6    2    4 1
     7    2   29 1
     8    4    9 ar
     9    4    5 ar
    10    5    6 ar
    11    5   37 1
    12    6    7 ar
    13    6   38 1
    14    7    8 ar
    15    7   10 1
    16    8    9 ar
    17    8   39 1
    18    9   40 1
    19   10   11 2
    20   10   15 1
    21   11   13 1
    22   12   15 1
    23   13   14 2
    24   13   23 1
    25   14   15 1
    26   14   16 1
    27   16   21 ar
    28   16   17 ar
    29   17   18 ar
    30   17   41 1
    31   18   19 ar
    32   18   42 1
    33   19   20 ar
    34   19   22 1
    35   20   21 ar
    36   20   43 1
    37   21   44 1
    38   23   28 ar
    39   23   24 ar
    40   24   25 ar
    41   24   45 1
    42   25   26 ar
    43   25   46 1
    44   26   27 ar
    45   27   28 ar
    46   27   47 1
    47   28   48 1
    48   29   30 am
    49   29   33 1
    50   30   31 2
    51   30   32 am
    52   32   49 1
    53   32   50 1
    54   33   51 1
@<TRIPOS>MOLECULE
ZINC03815672
   67    71     0     0     0
SMALL
USER_CHARGES

@<TRIPOS>ATOM
      1 C1         -2.5494    5.6703    5.6632 C.3       1 <0>        -0.1579
      2 C2         -2.1701    6.0794    4.2385 C.3       1 <0>         0.2009
      3 H1         -2.9685    6.6850    3.8097 H         1 <0>         0.1022
      4 C3         -0.8935    6.8796    4.2688 C.ar      1 <0>        -0.0985
      5 C4          0.3243    6.2345    4.3765 C.ar      1 <0>        -0.1139
      6 C5          1.4956    6.9683    4.3998 C.ar      1 <0>        -0.1139
      7 C6          1.4485    8.3478    4.3246 C.ar      1 <0>        -0.1146
      8 C7          0.2304    8.9933    4.2221 C.ar      1 <0>        -0.1139
      9 C8         -0.9406    8.2592    4.1944 C.ar      1 <0>        -0.1054
     10 N1         -1.9748    4.8792    3.4215 N.pl3     1 <0>        -0.6850
     11 C9         -3.0602    4.2702    2.8157 C.ar      1 <0>         0.5810
     12 N2         -4.2687    4.7875    2.9862 N.ar      1 <0>        -0.5612
     13 C10        -5.3337    4.2358    2.4242 C.ar      1 <0>         0.2079
     14 C11        -5.1790    3.1029    1.6482 C.ar      1 <0>        -0.2973
     15 C12        -3.8904    2.5774    1.4847 C.ar      1 <0>         0.2855
     16 N3         -2.8650    3.1842    2.0856 N.ar      1 <0>        -0.5508
     17 C13        -3.6718    1.3703    0.6672 C.2       1 <0>         0.0310
     18 C14        -2.5042    1.0042    0.0199 C.2       1 <0>         0.1111
     19 N4         -2.7434   -0.1590   -0.6111 N.2       1 <0>        -0.4666
     20 C15        -3.9726   -0.5334   -0.3865 C.2       1 <0>         0.2124
     21 N5         -4.5878    0.3787    0.3939 N.pl3     1 <0>        -0.4338
     22 C16        -5.9743    0.3247    0.8640 C.3       1 <0>         0.0550
     23 C17        -4.6099   -1.7895   -0.9225 C.3       1 <0>        -0.0081
     24 C18        -3.8366   -3.0110   -0.4181 C.3       1 <0>        -0.1402
     25 C19        -4.4501   -4.2794   -1.0156 C.3       1 <0>        -0.0004
     26 C20        -5.1681   -3.0724   -2.9905 C.3       1 <0>        -0.0003
     27 C21        -4.5751   -1.7679   -2.4532 C.3       1 <0>        -0.1392
     28 C22        -1.2287    1.7580    0.0174 C.ar      1 <0>        -0.0096
     29 C23        -1.2395    3.1526    0.0294 C.ar      1 <0>        -0.0304
     30 C24        -0.0485    3.8490    0.0218 C.ar      1 <0>        -0.1228
     31 C25         1.1551    3.1665    0.0076 C.ar      1 <0>        -0.0579
     32 C26         1.1723    1.7835    0.0004 C.ar      1 <0>        -0.1878
     33 C27        -0.0126    1.0758    0.0080 C.ar      1 <0>        -0.0399
     34 C28         2.4874    1.0478   -0.0160 C.3       1 <0>         0.5093
     35 F1          2.8818    0.8273   -1.3401 F         1 <0>        -0.1762
     36 F2          3.4583    1.8136    0.6383 F         1 <0>        -0.1746
     37 F3          2.3430   -0.1803    0.6383 F         1 <0>        -0.1783
     38 H2         -2.6947    6.5633    6.2711 H         1 <0>         0.0716
     39 H3         -3.4728    5.0915    5.6414 H         1 <0>         0.0637
     40 H4         -1.7510    5.0647    6.0921 H         1 <0>         0.0579
     41 H5          0.3609    5.1569    4.4391 H         1 <0>         0.1178
     42 H6          2.4473    6.4640    4.4796 H         1 <0>         0.1248
     43 H7          2.3634    8.9213    4.3455 H         1 <0>         0.1249
     44 H8          0.1936   10.0710    4.1633 H         1 <0>         0.1263
     45 H9         -1.8923    8.7635    4.1144 H         1 <0>         0.1251
     46 H10        -1.0849    4.5112    3.3050 H         1 <0>         0.4141
     47 H11        -6.3129    4.6671    2.5706 H         1 <0>         0.1730
     48 H12        -6.0310    2.6339    1.1786 H         1 <0>         0.1408
     49 H13        -6.6221    0.8234    0.1431 H         1 <0>         0.0904
     50 H14        -6.2817   -0.7157    0.9699 H         1 <0>         0.0928
     51 H15        -6.0506    0.8262    1.8288 H         1 <0>         0.1004
     52 H16        -5.6439   -1.8470   -0.5824 H         1 <0>         0.1018
     53 H17        -2.7934   -2.9333   -0.7244 H         1 <0>         0.1047
     54 H18        -3.8949   -3.0549    0.6695 H         1 <0>         0.1130
     55 H19        -5.4890   -4.3642   -0.6968 H         1 <0>         0.1306
     56 H20        -3.8922   -5.1499   -0.6707 H         1 <0>         0.1371
     57 H21        -6.2036   -3.1629   -2.6623 H         1 <0>         0.1307
     58 H22        -5.1317   -3.0663   -4.0798 H         1 <0>         0.1370
     59 H23        -5.1606   -0.9243   -2.8186 H         1 <0>         0.1130
     60 H24        -3.5439   -1.6700   -2.7924 H         1 <0>         0.1048
     61 H25        -2.1783    3.6864    0.0405 H         1 <0>         0.1217
     62 H26        -0.0556    4.9290    0.0265 H         1 <0>         0.1352
     63 H27         2.0848    3.7160    0.0016 H         1 <0>         0.1377
     64 H28         0.0021   -0.0041    0.0020 H         1 <0>         0.1354
     65 N6         -4.3862   -4.2183   -2.4883 N.4       1 <0>        -0.5179
     66 H29        -4.7693   -5.0868   -2.8798 H         1 <0>         0.4379
     67 H30        -3.4074   -4.1139   -2.7803 H         1 <0>         0.4359
@<TRIPOS>BOND
     1    1    2 1
     2    1   38 1
     3    1   39 1
     4    1   40 1
     5    2    3 1
     6    2    4 1
     7    2   10 1
     8    4    9 ar
     9    4    5 ar
    10    5    6 ar
    11    5   41 1
    12    6    7 ar
    13    6   42 1
    14    7    8 ar
    15    7   43 1
    16    8    9 ar
    17    8   44 1
    18    9   45 1
    19   10   11 1
    20   10   46 1
    21   11   16 ar
    22   11   12 ar
    23   12   13 ar
    24   13   14 ar
    25   13   47 1
    26   14   15 ar
    27   14   48 1
    28   15   16 ar
    29   15   17 1
    30   17   21 1
    31   17   18 2
    32   18   19 1
    33   18   28 1
    34   19   20 2
    35   20   21 1
    36   20   23 1
    37   21   22 1
    38   22   49 1
    39   22   50 1
    40   22   51 1
    41   23   27 1
    42   23   24 1
    43   23   52 1
    44   24   25 1
    45   24   53 1
    46   24   54 1
    47   25   55 1
    48   25   56 1
    49   25   65 1
    50   26   27 1
    51   26   57 1
    52   26   58 1
    53   26   65 1
    54   27   59 1
    55   27   60 1
    56   28   33 ar
    57   28   29 ar
    58   29   30 ar
    59   29   61 1
    60   30   31 ar
    61   30   62 1
    62   31   32 ar
    63   31   63 1
    64   32   33 ar
    65   32   34 1
    66   33   64 1
    67   34   35 1
    68   34   36 1
    69   34   37 1
    70   65   66 1
    71   65   67 1
@<TRIPOS>MOLECULE
ZINC03815672
   68    72     0     0     0
SMALL
USER_CHARGES

@<TRIPOS>ATOM
      1 C1         -2.5494    5.6703    5.6632 C.3       1 <0>        -0.1596
      2 C2         -2.1701    6.0794    4.2385 C.3       1 <0>         0.1984
      3 H1         -2.9685    6.6850    3.8097 H         1 <0>         0.1060
      4 C3         -0.8935    6.8796    4.2688 C.ar      1 <0>        -0.1052
      5 C4          0.3243    6.2345    4.3765 C.ar      1 <0>        -0.1169
      6 C5          1.4956    6.9683    4.3998 C.ar      1 <0>        -0.1136
      7 C6          1.4485    8.3478    4.3246 C.ar      1 <0>        -0.1099
      8 C7          0.2304    8.9933    4.2221 C.ar      1 <0>        -0.1105
      9 C8         -0.9406    8.2592    4.1944 C.ar      1 <0>        -0.1032
     10 N1         -1.9748    4.8792    3.4215 N.pl3     1 <0>        -0.6747
     11 C9         -3.0602    4.2702    2.8157 C.ar      1 <0>         0.5883
     12 N2         -4.2687    4.7875    2.9862 N.ar      1 <0>        -0.5391
     13 C10        -5.3337    4.2358    2.4242 C.ar      1 <0>         0.2227
     14 C11        -5.1790    3.1029    1.6482 C.ar      1 <0>        -0.2812
     15 C12        -3.8904    2.5774    1.4847 C.ar      1 <0>         0.2479
     16 N3         -2.8650    3.1842    2.0856 N.ar      1 <0>        -0.5497
     17 C13        -3.6718    1.3703    0.6672 C.2       1 <0>         0.1139
     18 C14        -2.5042    1.0042    0.0199 C.2       1 <0>         0.1513
     19 C15        -3.9726   -0.5334   -0.3865 C.cat     1 <0>         0.2954
     20 N4         -4.5878    0.3787    0.3939 N.pl3     1 <0>        -0.3758
     21 C16        -5.9743    0.3247    0.8640 C.3       1 <0>         0.0369
     22 C17        -4.6099   -1.7895   -0.9225 C.3       1 <0>        -0.0454
     23 C18        -3.8366   -3.0110   -0.4181 C.3       1 <0>        -0.1508
     24 C19        -4.4501   -4.2794   -1.0156 C.3       1 <0>        -0.0001
     25 C20        -5.1681   -3.0724   -2.9905 C.3       1 <0>        -0.0001
     26 C21        -4.5751   -1.7679   -2.4532 C.3       1 <0>        -0.1496
     27 C22        -1.2287    1.7580    0.0174 C.ar      1 <0>        -0.0700
     28 C23        -1.2395    3.1526    0.0294 C.ar      1 <0>        -0.0070
     29 C24        -0.0485    3.8490    0.0218 C.ar      1 <0>        -0.1123
     30 C25         1.1551    3.1665    0.0076 C.ar      1 <0>        -0.0265
     31 C26         1.1723    1.7835    0.0004 C.ar      1 <0>        -0.1768
     32 C27        -0.0126    1.0758    0.0080 C.ar      1 <0>        -0.0447
     33 C28         2.4874    1.0478   -0.0160 C.3       1 <0>         0.5082
     34 F1          2.8818    0.8273   -1.3401 F         1 <0>        -0.1706
     35 F2          3.4583    1.8136    0.6383 F         1 <0>        -0.1656
     36 F3          2.3430   -0.1803    0.6383 F         1 <0>        -0.1766
     37 H2         -2.6947    6.5633    6.2711 H         1 <0>         0.0776
     38 H3         -3.4728    5.0915    5.6414 H         1 <0>         0.0635
     39 H4         -1.7510    5.0647    6.0921 H         1 <0>         0.0601
     40 H5          0.3609    5.1569    4.4391 H         1 <0>         0.1154
     41 H6          2.4473    6.4640    4.4796 H         1 <0>         0.1260
     42 H7          2.3634    8.9213    4.3455 H         1 <0>         0.1279
     43 H8          0.1936   10.0710    4.1633 H         1 <0>         0.1294
     44 H9         -1.8923    8.7635    4.1144 H         1 <0>         0.1268
     45 H10        -1.0849    4.5112    3.3050 H         1 <0>         0.4161
     46 H11        -6.3129    4.6671    2.5706 H         1 <0>         0.1851
     47 H12        -6.0310    2.6339    1.1786 H         1 <0>         0.1476
     48 H13        -6.6221    0.8234    0.1431 H         1 <0>         0.1239
     49 H14        -6.2817   -0.7157    0.9699 H         1 <0>         0.1192
     50 H15        -6.0506    0.8262    1.8288 H         1 <0>         0.1300
     51 H16        -5.6439   -1.8470   -0.5824 H         1 <0>         0.1425
     52 H17        -2.7934   -2.9333   -0.7244 H         1 <0>         0.0984
     53 H18        -3.8949   -3.0549    0.6695 H         1 <0>         0.1300
     54 H19        -5.4890   -4.3642   -0.6968 H         1 <0>         0.1420
     55 H20        -3.8922   -5.1499   -0.6707 H         1 <0>         0.1495
     56 H21        -6.2036   -3.1629   -2.6623 H         1 <0>         0.1421
     57 H22        -5.1317   -3.0663   -4.0798 H         1 <0>         0.1495
     58 H23        -5.1606   -0.9243   -2.8186 H         1 <0>         0.1303
     59 H24        -3.5439   -1.6700   -2.7924 H         1 <0>         0.0984
     60 H25        -2.1783    3.6864    0.0405 H         1 <0>         0.1336
     61 H26        -0.0556    4.9290    0.0265 H         1 <0>         0.1510
     62 H27         2.0848    3.7160    0.0016 H         1 <0>         0.1527
     63 H28         0.0021   -0.0041    0.0020 H         1 <0>         0.1347
     64 N5         -4.3862   -4.2183   -2.4883 N.4       1 <0>        -0.5217
     65 H29        -4.7693   -5.0868   -2.8798 H         1 <0>         0.4501
     66 H30        -3.4074   -4.1139   -2.7803 H         1 <0>         0.4359
     67 N6         -2.7430   -0.1593   -0.6115 N.pl3     1 <0>        -0.4762
     68 H31        -2.0623   -0.6739   -1.1826 H         1 <0>         0.4754
@<TRIPOS>BOND
     1    1    2 1
     2    1   37 1
     3    1   38 1
     4    1   39 1
     5    2    3 1
     6    2    4 1
     7    2   10 1
     8    4    9 ar
     9    4    5 ar
    10    5    6 ar
    11    5   40 1
    12    6    7 ar
    13    6   41 1
    14    7    8 ar
    15    7   42 1
    16    8    9 ar
    17    8   43 1
    18    9   44 1
    19   10   11 1
    20   10   45 1
    21   11   16 ar
    22   11   12 ar
    23   12   13 ar
    24   13   14 ar
    25   13   46 1
    26   14   15 ar
    27   14   47 1
    28   15   16 ar
    29   15   17 1
    30   17   20 1
    31   17   18 2
    32   18   27 1
    33   18   67 1
    34   19   20 1
    35   19   22 1
    36   19   67 2
    37   20   21 1
    38   21   48 1
    39   21   49 1
    40   21   50 1
    41   22   26 1
    42   22   23 1
    43   22   51 1
    44   23   24 1
    45   23   52 1
    46   23   53 1
    47   24   54 1
    48   24   55 1
    49   24   64 1
    50   25   26 1
    51   25   56 1
    52   25   57 1
    53   25   64 1
    54   26   58 1
    55   26   59 1
    56   27   32 ar
    57   27   28 ar
    58   28   29 ar
    59   28   60 1
    60   29   30 ar
    61   29   61 1
    62   30   31 ar
    63   30   62 1
    64   31   32 ar
    65   31   33 1
    66   32   63 1
    67   33   34 1
    68   33   35 1
    69   33   36 1
    70   64   65 1
    71   64   66 1
    72   67   68 1
@<TRIPOS>MOLECULE
ZINC03815673
   69    73     0     0     0
SMALL
USER_CHARGES

@<TRIPOS>ATOM
      1 C1         -1.5619    1.5147   -3.2631 C.3       1 <0>        -0.1787
      2 C2         -1.7445    2.6532   -4.2688 C.3       1 <0>         0.1839
      3 H1         -0.9426    3.3808   -4.1434 H         1 <0>         0.1054
      4 C3         -1.7044    2.0977   -5.6691 C.ar      1 <0>        -0.1181
      5 C4         -2.8236    1.4863   -6.2024 C.ar      1 <0>        -0.1169
      6 C5         -2.7882    0.9807   -7.4885 C.ar      1 <0>        -0.1088
      7 C6         -1.6306    1.0780   -8.2378 C.ar      1 <0>        -0.1004
      8 C7         -0.5099    1.6851   -7.7027 C.ar      1 <0>        -0.1073
      9 C8         -0.5467    2.1946   -6.4182 C.ar      1 <0>        -0.1007
     10 N1         -3.0360    3.3054   -4.0389 N.pl3     1 <0>        -0.6841
     11 C9         -3.1474    4.3098   -3.0837 C.ar      1 <0>         0.4667
     12 C10        -2.0301    4.6884   -2.3523 C.ar      1 <0>        -0.1924
     13 C11        -2.1593    5.6998   -1.3958 C.ar      1 <0>         0.1548
     14 C12        -3.4219    6.2847   -1.2153 C.ar      1 <0>        -0.1827
     15 C13        -4.4774    5.8529   -1.9865 C.ar      1 <0>         0.1740
     16 C14        -1.0001    6.1364   -0.5931 C.2       1 <0>        -0.0220
     17 C15        -0.0702    5.3257    0.0328 C.2       1 <0>         0.1249
     18 N2          0.8094    6.1309    0.6563 N.2       1 <0>        -0.4611
     19 C16         0.4857    7.3765    0.4462 C.2       1 <0>         0.2415
     20 N3         -0.6267    7.4318   -0.3168 N.pl3     1 <0>        -0.4328
     21 C17        -1.3101    8.6467   -0.7677 C.3       1 <0>         0.0530
     22 C18         1.2351    8.5709    0.9782 C.3       1 <0>        -0.0156
     23 C19         2.6723    8.5499    0.4504 C.3       1 <0>        -0.1401
     24 C20         3.4455    9.7300    1.0435 C.3       1 <0>        -0.0013
     25 C21         2.0732    9.7015    3.0405 C.3       1 <0>        -0.0012
     26 C22         1.2594    8.5197    2.5083 C.3       1 <0>        -0.1392
     27 C23        -0.0501    3.8444    0.0236 C.ar      1 <0>        -0.0315
     28 C24        -1.2468    3.1278    0.0308 C.ar      1 <0>        -0.0783
     29 C25        -1.2217    1.7485    0.0174 C.ar      1 <0>        -0.1151
     30 C26        -0.0126    1.0758    0.0080 C.ar      1 <0>        -0.0537
     31 C27         1.1774    1.7809    0.0004 C.ar      1 <0>        -0.1721
     32 C28         1.1652    3.1609    0.0084 C.ar      1 <0>        -0.0315
     33 C29         2.4900    1.0406   -0.0161 C.3       1 <0>         0.5065
     34 F1          2.2482   -0.3373   -0.0212 F         1 <0>        -0.1704
     35 F2          3.2092    1.3921   -1.1635 F         1 <0>        -0.1736
     36 F3          3.2310    1.3799    1.1210 F         1 <0>        -0.1720
     37 H2         -2.3638    0.7871   -3.3884 H         1 <0>         0.0756
     38 H3         -0.6010    1.0294   -3.4341 H         1 <0>         0.0900
     39 H4         -1.5909    1.9164   -2.2502 H         1 <0>         0.0712
     40 H5         -3.7267    1.4066   -5.6155 H         1 <0>         0.1168
     41 H6         -3.6638    0.5066   -7.9066 H         1 <0>         0.1315
     42 H7         -1.6019    0.6799   -9.2413 H         1 <0>         0.1330
     43 H8          0.3945    1.7612   -8.2881 H         1 <0>         0.1333
     44 H9          0.3290    2.6687   -6.0000 H         1 <0>         0.1271
     45 H10        -3.8134    3.0366   -4.5530 H         1 <0>         0.4213
     46 H11        -1.0765    4.2097   -2.5196 H         1 <0>         0.1825
     47 H12        -3.5631    7.0659   -0.4831 H         1 <0>         0.1777
     48 H13        -5.4507    6.3021   -1.8551 H         1 <0>         0.2013
     49 H14        -2.0612    8.9353   -0.0324 H         1 <0>         0.0952
     50 H15        -0.5837    9.4516   -0.8802 H         1 <0>         0.1010
     51 H16        -1.7937    8.4571   -1.7259 H         1 <0>         0.0959
     52 H17         0.7406    9.4859    0.6522 H         1 <0>         0.1061
     53 H18         3.1537    7.6167    0.7428 H         1 <0>         0.1055
     54 H19         2.6620    8.6298   -0.6366 H         1 <0>         0.1135
     55 H20         2.9722   10.6632    0.7385 H         1 <0>         0.1322
     56 H21         4.4736    9.7091    0.6818 H         1 <0>         0.1400
     57 H22         1.6063   10.6349    2.7261 H         1 <0>         0.1323
     58 H23         2.1044    9.6599    4.1293 H         1 <0>         0.1401
     59 H24         0.2403    8.5780    2.8906 H         1 <0>         0.1136
     60 H25         1.7180    7.5860    2.8340 H         1 <0>         0.1057
     61 H26        -2.1911    3.6517    0.0426 H         1 <0>         0.1250
     62 H27        -2.1476    1.1926    0.0184 H         1 <0>         0.1434
     63 H28         0.0021   -0.0041    0.0020 H         1 <0>         0.1491
     64 H29         2.0949    3.7103    0.0024 H         1 <0>         0.1419
     65 N4         -4.3833    4.8707   -2.9256 N.ar      1 <0>        -0.5426
     66 H30        -5.1926    4.5698   -3.4812 H         1 <0>         0.4723
     67 N5          3.4503    9.6337    2.5157 N.4       1 <0>        -0.5187
     68 H31         3.9987   10.4103    2.9036 H         1 <0>         0.4417
     69 H32         3.8752    8.7417    2.7949 H         1 <0>         0.4366
@<TRIPOS>BOND
     1    1    2 1
     2    1   37 1
     3    1   38 1
     4    1   39 1
     5    2    3 1
     6    2    4 1
     7    2   10 1
     8    4    9 ar
     9    4    5 ar
    10    5    6 ar
    11    5   40 1
    12    6    7 ar
    13    6   41 1
    14    7    8 ar
    15    7   42 1
    16    8    9 ar
    17    8   43 1
    18    9   44 1
    19   10   11 1
    20   10   45 1
    21   11   12 ar
    22   11   65 ar
    23   12   13 ar
    24   12   46 1
    25   13   14 ar
    26   13   16 1
    27   14   15 ar
    28   14   47 1
    29   15   48 1
    30   15   65 ar
    31   16   20 1
    32   16   17 2
    33   17   18 1
    34   17   27 1
    35   18   19 2
    36   19   20 1
    37   19   22 1
    38   20   21 1
    39   21   49 1
    40   21   50 1
    41   21   51 1
    42   22   26 1
    43   22   23 1
    44   22   52 1
    45   23   24 1
    46   23   53 1
    47   23   54 1
    48   24   55 1
    49   24   56 1
    50   24   67 1
    51   25   26 1
    52   25   57 1
    53   25   58 1
    54   25   67 1
    55   26   59 1
    56   26   60 1
    57   27   32 ar
    58   27   28 ar
    59   28   29 ar
    60   28   61 1
    61   29   30 ar
    62   29   62 1
    63   30   31 ar
    64   30   63 1
    65   31   32 ar
    66   31   33 1
    67   32   64 1
    68   33   34 1
    69   33   35 1
    70   33   36 1
    71   65   66 1
    72   67   68 1
    73   67   69 1
@<TRIPOS>MOLECULE
ZINC03815673
   70    74     0     0     0
SMALL
USER_CHARGES

@<TRIPOS>ATOM
      1 C1         -1.5619    1.5147   -3.2631 C.3       1 <0>        -0.1792
      2 C2         -1.7445    2.6532   -4.2688 C.3       1 <0>         0.1824
      3 H1         -0.9426    3.3808   -4.1434 H         1 <0>         0.1055
      4 C3         -1.7044    2.0977   -5.6691 C.ar      1 <0>        -0.1287
      5 C4         -2.8236    1.4863   -6.2024 C.ar      1 <0>        -0.1167
      6 C5         -2.7882    0.9807   -7.4885 C.ar      1 <0>        -0.1054
      7 C6         -1.6306    1.0780   -8.2378 C.ar      1 <0>        -0.0937
      8 C7         -0.5099    1.6851   -7.7027 C.ar      1 <0>        -0.1055
      9 C8         -0.5467    2.1946   -6.4182 C.ar      1 <0>        -0.1002
     10 N1         -3.0360    3.3054   -4.0389 N.pl3     1 <0>        -0.6680
     11 C9         -3.1474    4.3098   -3.0837 C.ar      1 <0>         0.4699
     12 C10        -2.0301    4.6884   -2.3523 C.ar      1 <0>        -0.1750
     13 C11        -2.1593    5.6998   -1.3958 C.ar      1 <0>         0.1112
     14 C12        -3.4219    6.2847   -1.2153 C.ar      1 <0>        -0.1822
     15 C13        -4.4774    5.8529   -1.9865 C.ar      1 <0>         0.1958
     16 C14        -1.0001    6.1364   -0.5931 C.2       1 <0>         0.0639
     17 C15        -0.0702    5.3257    0.0328 C.2       1 <0>         0.1611
     18 C16         0.4857    7.3765    0.4462 C.cat     1 <0>         0.3247
     19 N2         -0.6267    7.4318   -0.3168 N.pl3     1 <0>        -0.3770
     20 C17        -1.3101    8.6467   -0.7677 C.3       1 <0>         0.0362
     21 C18         1.2351    8.5709    0.9782 C.3       1 <0>        -0.0526
     22 C19         2.6723    8.5499    0.4504 C.3       1 <0>        -0.1504
     23 C20         3.4455    9.7300    1.0435 C.3       1 <0>        -0.0012
     24 C21         2.0732    9.7015    3.0405 C.3       1 <0>        -0.0011
     25 C22         1.2594    8.5197    2.5083 C.3       1 <0>        -0.1494
     26 C23        -0.0501    3.8444    0.0236 C.ar      1 <0>        -0.0913
     27 C24        -1.2468    3.1278    0.0308 C.ar      1 <0>        -0.0560
     28 C25        -1.2217    1.7485    0.0174 C.ar      1 <0>        -0.1040
     29 C26        -0.0126    1.0758    0.0080 C.ar      1 <0>        -0.0228
     30 C27         1.1774    1.7809    0.0004 C.ar      1 <0>        -0.1615
     31 C28         1.1652    3.1609    0.0084 C.ar      1 <0>        -0.0376
     32 C29         2.4900    1.0406   -0.0161 C.3       1 <0>         0.5053
     33 F1          2.2482   -0.3373   -0.0212 F         1 <0>        -0.1615
     34 F2          3.2092    1.3921   -1.1635 F         1 <0>        -0.1688
     35 F3          3.2310    1.3799    1.1210 F         1 <0>        -0.1696
     36 H2         -2.3638    0.7871   -3.3884 H         1 <0>         0.0821
     37 H3         -0.6010    1.0294   -3.4341 H         1 <0>         0.0944
     38 H4         -1.5909    1.9164   -2.2502 H         1 <0>         0.0634
     39 H5         -3.7267    1.4066   -5.6155 H         1 <0>         0.1170
     40 H6         -3.6638    0.5066   -7.9066 H         1 <0>         0.1349
     41 H7         -1.6019    0.6799   -9.2413 H         1 <0>         0.1367
     42 H8          0.3945    1.7612   -8.2881 H         1 <0>         0.1358
     43 H9          0.3290    2.6687   -6.0000 H         1 <0>         0.1256
     44 H10        -3.8134    3.0366   -4.5530 H         1 <0>         0.4282
     45 H11        -1.0765    4.2097   -2.5196 H         1 <0>         0.1874
     46 H12        -3.5631    7.0659   -0.4831 H         1 <0>         0.1841
     47 H13        -5.4507    6.3021   -1.8551 H         1 <0>         0.2116
     48 H14        -2.0612    8.9353   -0.0324 H         1 <0>         0.1275
     49 H15        -0.5837    9.4516   -0.8802 H         1 <0>         0.1261
     50 H16        -1.7937    8.4571   -1.7259 H         1 <0>         0.1262
     51 H17         0.7406    9.4859    0.6522 H         1 <0>         0.1465
     52 H18         3.1537    7.6167    0.7428 H         1 <0>         0.0993
     53 H19         2.6620    8.6298   -0.6366 H         1 <0>         0.1305
     54 H20         2.9722   10.6632    0.7385 H         1 <0>         0.1435
     55 H21         4.4736    9.7091    0.6818 H         1 <0>         0.1524
     56 H22         1.6063   10.6349    2.7261 H         1 <0>         0.1436
     57 H23         2.1044    9.6599    4.1293 H         1 <0>         0.1525
     58 H24         0.2403    8.5780    2.8906 H         1 <0>         0.1309
     59 H25         1.7180    7.5860    2.8340 H         1 <0>         0.0994
     60 H26        -2.1911    3.6517    0.0426 H         1 <0>         0.1376
     61 H27        -2.1476    1.1926    0.0184 H         1 <0>         0.1590
     62 H28         0.0021   -0.0041    0.0020 H         1 <0>         0.1635
     63 H29         2.0949    3.7103    0.0024 H         1 <0>         0.1415
     64 N3         -4.3833    4.8707   -2.9256 N.ar      1 <0>        -0.5324
     65 H30        -5.1926    4.5698   -3.4812 H         1 <0>         0.4811
     66 N4          3.4503    9.6337    2.5157 N.4       1 <0>        -0.5223
     67 H31         3.9987   10.4103    2.9036 H         1 <0>         0.4536
     68 H32         3.8752    8.7417    2.7949 H         1 <0>         0.4366
     69 N5          0.8098    6.1307    0.6566 N.pl3     1 <0>        -0.4771
     70 H33         1.6126    5.8131    1.2124 H         1 <0>         0.4826
@<TRIPOS>BOND
     1    1    2 1
     2    1   36 1
     3    1   37 1
     4    1   38 1
     5    2    3 1
     6    2    4 1
     7    2   10 1
     8    4    9 ar
     9    4    5 ar
    10    5    6 ar
    11    5   39 1
    12    6    7 ar
    13    6   40 1
    14    7    8 ar
    15    7   41 1
    16    8    9 ar
    17    8   42 1
    18    9   43 1
    19   10   11 1
    20   10   44 1
    21   11   12 ar
    22   11   64 ar
    23   12   13 ar
    24   12   45 1
    25   13   14 ar
    26   13   16 1
    27   14   15 ar
    28   14   46 1
    29   15   47 1
    30   15   64 ar
    31   16   19 1
    32   16   17 2
    33   17   26 1
    34   17   69 1
    35   18   19 1
    36   18   21 1
    37   18   69 2
    38   19   20 1
    39   20   48 1
    40   20   49 1
    41   20   50 1
    42   21   25 1
    43   21   22 1
    44   21   51 1
    45   22   23 1
    46   22   52 1
    47   22   53 1
    48   23   54 1
    49   23   55 1
    50   23   66 1
    51   24   25 1
    52   24   56 1
    53   24   57 1
    54   24   66 1
    55   25   58 1
    56   25   59 1
    57   26   31 ar
    58   26   27 ar
    59   27   28 ar
    60   27   60 1
    61   28   29 ar
    62   28   61 1
    63   29   30 ar
    64   29   62 1
    65   30   31 ar
    66   30   32 1
    67   31   63 1
    68   32   33 1
    69   32   34 1
    70   32   35 1
    71   64   65 1
    72   66   67 1
    73   66   68 1
    74   69   70 1
@<TRIPOS>MOLECULE
ZINC03815676
   51    55     0     0     0
SMALL
USER_CHARGES

@<TRIPOS>ATOM
      1 C1         -0.0167    1.3781    0.0096 C.ar      1 <0>        -0.1073
      2 C2          1.1709    2.0855    0.0021 C.ar      1 <0>        -0.1224
      3 C3          2.3773    1.4107   -0.0136 C.ar      1 <0>        -0.0927
      4 C4          2.3960    0.0285   -0.0217 C.ar      1 <0>        -0.0961
      5 C5          1.2084   -0.6789   -0.0136 C.ar      1 <0>        -0.0924
      6 C6          0.0021   -0.0041    0.0020 C.ar      1 <0>        -0.1221
      7 C7          3.7112   -0.7071   -0.0387 C.3       1 <0>         0.0987
      8 O1          4.1134   -0.9324   -1.3913 O.3       1 <0>        -0.2849
      9 C8          5.2857   -1.5882   -1.5843 C.ar      1 <0>         0.2604
     10 C9          6.0493   -2.0151   -0.5092 C.ar      1 <0>        -0.3537
     11 C10         7.2460   -2.6851   -0.7488 C.ar      1 <0>         0.4792
     12 N1          7.6690   -2.9230   -1.9789 N.ar      1 <0>        -0.5881
     13 C11         6.9755   -2.5354   -3.0455 C.ar      1 <0>         0.3768
     14 C12         5.7569   -1.8588   -2.8783 C.ar      1 <0>        -0.2121
     15 C13         5.2498   -1.5696   -4.2264 C.2       1 <0>        -0.0642
     16 C14         6.1742   -2.0881   -5.1083 C.2       1 <0>         0.1043
     17 N2          7.2018   -2.6632   -4.3960 N.pl3     1 <0>        -0.5670
     18 H1          7.9750   -3.0966   -4.7901 H         1 <0>         0.4216
     19 C15         6.0768   -2.0356   -6.5801 C.ar      1 <0>        -0.0371
     20 C16         5.6991   -0.8504   -7.2160 C.ar      1 <0>        -0.0564
     21 C17         5.6141   -0.8062   -8.5915 C.ar      1 <0>        -0.1488
     22 C18         5.8927   -1.9373   -9.3425 C.ar      1 <0>         0.1065
     23 C19         6.2632   -3.1173   -8.7170 C.ar      1 <0>        -0.1509
     24 C20         6.3564   -3.1724   -7.3424 C.ar      1 <0>        -0.0786
     25 F1          5.8022   -1.8896  -10.6897 F         1 <0>        -0.1368
     26 C21         3.9934   -0.8669   -4.5696 C.ar      1 <0>        -0.0057
     27 C22         3.8273    0.4768   -4.2317 C.ar      1 <0>        -0.0912
     28 C23         2.6557    1.1276   -4.5592 C.ar      1 <0>        -0.1172
     29 C24         1.6424    0.4478   -5.2115 C.ar      1 <0>        -0.1183
     30 C25         1.7988   -0.8859   -5.5446 C.ar      1 <0>        -0.1197
     31 C26         2.9675   -1.5467   -5.2274 C.ar      1 <0>        -0.1011
     32 N3          8.0126   -3.1137    0.3285 N.pl3     1 <0>        -0.8456
     33 H2         -0.9592    1.9054    0.0170 H         1 <0>         0.1238
     34 H3          1.1563    3.1654    0.0081 H         1 <0>         0.1248
     35 H4          3.3051    1.9634   -0.0195 H         1 <0>         0.1229
     36 H5          1.2231   -1.7587   -0.0199 H         1 <0>         0.1227
     37 H6         -0.9258   -0.5567    0.0079 H         1 <0>         0.1247
     38 H7          4.4678   -0.1105    0.4708 H         1 <0>         0.0746
     39 H8          3.5989   -1.6640    0.4711 H         1 <0>         0.0742
     40 H9          5.7197   -1.8305    0.5026 H         1 <0>         0.1385
     41 H10         5.4775    0.0303   -6.6316 H         1 <0>         0.1378
     42 H11         5.3258    0.1105   -9.0845 H         1 <0>         0.1406
     43 H12         6.4791   -3.9956   -9.3074 H         1 <0>         0.1396
     44 H13         6.6445   -4.0926   -6.8560 H         1 <0>         0.1332
     45 H14         4.6157    1.0071   -3.7183 H         1 <0>         0.1170
     46 H15         2.5274    2.1685   -4.3016 H         1 <0>         0.1187
     47 H16         0.7255    0.9607   -5.4620 H         1 <0>         0.1178
     48 H17         1.0040   -1.4109   -6.0537 H         1 <0>         0.1194
     49 H18         3.0884   -2.5879   -5.4879 H         1 <0>         0.1172
     50 H19         7.7121   -2.9450    1.2352 H         1 <0>         0.4102
     51 H20         8.8481   -3.5815    0.1735 H         1 <0>         0.4053
@<TRIPOS>BOND
     1    1    6 ar
     2    1    2 ar
     3    1   33 1
     4    2    3 ar
     5    2   34 1
     6    3    4 ar
     7    3   35 1
     8    4    5 ar
     9    4    7 1
    10    5    6 ar
    11    5   36 1
    12    6   37 1
    13    7    8 1
    14    7   38 1
    15    7   39 1
    16    8    9 1
    17    9   14 ar
    18    9   10 ar
    19   10   11 ar
    20   10   40 1
    21   11   12 ar
    22   11   32 1
    23   12   13 ar
    24   13   17 1
    25   13   14 ar
    26   14   15 1
    27   15   16 2
    28   15   26 1
    29   16   17 1
    30   16   19 1
    31   17   18 1
    32   19   24 ar
    33   19   20 ar
    34   20   21 ar
    35   20   41 1
    36   21   22 ar
    37   21   42 1
    38   22   23 ar
    39   22   25 1
    40   23   24 ar
    41   23   43 1
    42   24   44 1
    43   26   31 ar
    44   26   27 ar
    45   27   28 ar
    46   27   45 1
    47   28   29 ar
    48   28   46 1
    49   29   30 ar
    50   29   47 1
    51   30   31 ar
    52   30   48 1
    53   31   49 1
    54   32   50 1
    55   32   51 1
@<TRIPOS>MOLECULE
ZINC03815676
   52    56     0     0     0
SMALL
USER_CHARGES

@<TRIPOS>ATOM
      1 C1         -0.0167    1.3781    0.0096 C.ar      1 <0>        -0.0955
      2 C2          1.1709    2.0855    0.0021 C.ar      1 <0>        -0.1204
      3 C3          2.3773    1.4107   -0.0136 C.ar      1 <0>        -0.0889
      4 C4          2.3960    0.0285   -0.0217 C.ar      1 <0>        -0.1143
      5 C5          1.2084   -0.6789   -0.0136 C.ar      1 <0>        -0.0885
      6 C6          0.0021   -0.0041    0.0020 C.ar      1 <0>        -0.1200
      7 C7          3.7112   -0.7071   -0.0387 C.3       1 <0>         0.0903
      8 O1          4.1134   -0.9324   -1.3913 O.3       1 <0>        -0.2558
      9 C8          5.2857   -1.5882   -1.5843 C.ar      1 <0>         0.3460
     10 C9          6.0493   -2.0151   -0.5092 C.ar      1 <0>        -0.3399
     11 C10         7.2460   -2.6851   -0.7488 C.ar      1 <0>         0.5342
     12 C11         6.9755   -2.5354   -3.0455 C.ar      1 <0>         0.3287
     13 C12         5.7569   -1.8588   -2.8783 C.ar      1 <0>        -0.1624
     14 C13         5.2498   -1.5696   -4.2264 C.2       1 <0>        -0.0259
     15 C14         6.1742   -2.0881   -5.1083 C.2       1 <0>         0.1313
     16 N1          7.2018   -2.6632   -4.3960 N.pl3     1 <0>        -0.5443
     17 H1          7.9750   -3.0966   -4.7901 H         1 <0>         0.4355
     18 C15         6.0768   -2.0356   -6.5801 C.ar      1 <0>        -0.0678
     19 C16         5.6991   -0.8504   -7.2160 C.ar      1 <0>        -0.0451
     20 C17         5.6141   -0.8062   -8.5915 C.ar      1 <0>        -0.1485
     21 C18         5.8927   -1.9373   -9.3425 C.ar      1 <0>         0.1276
     22 C19         6.2632   -3.1173   -8.7170 C.ar      1 <0>        -0.1513
     23 C20         6.3564   -3.1724   -7.3424 C.ar      1 <0>        -0.0706
     24 F1          5.8022   -1.8896  -10.6897 F         1 <0>        -0.1277
     25 C21         3.9934   -0.8669   -4.5696 C.ar      1 <0>        -0.0394
     26 C22         3.8273    0.4768   -4.2317 C.ar      1 <0>        -0.0875
     27 C23         2.6557    1.1276   -4.5592 C.ar      1 <0>        -0.1145
     28 C24         1.6424    0.4478   -5.2115 C.ar      1 <0>        -0.1016
     29 C25         1.7988   -0.8859   -5.5446 C.ar      1 <0>        -0.1162
     30 C26         2.9675   -1.5467   -5.2274 C.ar      1 <0>        -0.0908
     31 N2          8.0126   -3.1137    0.3285 N.pl3     1 <0>        -0.8194
     32 H2         -0.9592    1.9054    0.0170 H         1 <0>         0.1291
     33 H3          1.1563    3.1654    0.0081 H         1 <0>         0.1294
     34 H4          3.3051    1.9634   -0.0195 H         1 <0>         0.1246
     35 H5          1.2231   -1.7587   -0.0199 H         1 <0>         0.1243
     36 H6         -0.9258   -0.5567    0.0079 H         1 <0>         0.1293
     37 H7          4.4678   -0.1105    0.4708 H         1 <0>         0.0905
     38 H8          3.5989   -1.6640    0.4711 H         1 <0>         0.0900
     39 H9          5.7197   -1.8305    0.5026 H         1 <0>         0.1848
     40 H10         5.4775    0.0303   -6.6316 H         1 <0>         0.1411
     41 H11         5.3258    0.1105   -9.0845 H         1 <0>         0.1474
     42 H12         6.4791   -3.9956   -9.3074 H         1 <0>         0.1457
     43 H13         6.6445   -4.0926   -6.8560 H         1 <0>         0.1334
     44 H14         4.6157    1.0071   -3.7183 H         1 <0>         0.1196
     45 H15         2.5274    2.1685   -4.3016 H         1 <0>         0.1258
     46 H16         0.7255    0.9607   -5.4620 H         1 <0>         0.1254
     47 H17         1.0040   -1.4109   -6.0537 H         1 <0>         0.1268
     48 H18         3.0884   -2.5879   -5.4879 H         1 <0>         0.1212
     49 H19         7.7121   -2.9450    1.2352 H         1 <0>         0.4393
     50 H20         8.8481   -3.5815    0.1735 H         1 <0>         0.4212
     51 N3          7.7385   -2.9620   -1.9894 N.ar      1 <0>        -0.5653
     52 H21         8.6265   -3.4594   -2.1245 H         1 <0>         0.4594
@<TRIPOS>BOND
     1    1    6 ar
     2    1    2 ar
     3    1   32 1
     4    2    3 ar
     5    2   33 1
     6    3    4 ar
     7    3   34 1
     8    4    5 ar
     9    4    7 1
    10    5    6 ar
    11    5   35 1
    12    6   36 1
    13    7    8 1
    14    7   37 1
    15    7   38 1
    16    8    9 1
    17    9   13 ar
    18    9   10 ar
    19   10   11 ar
    20   10   39 1
    21   11   31 1
    22   11   51 ar
    23   12   16 1
    24   12   13 ar
    25   12   51 ar
    26   13   14 1
    27   14   15 2
    28   14   25 1
    29   15   16 1
    30   15   18 1
    31   16   17 1
    32   18   23 ar
    33   18   19 ar
    34   19   20 ar
    35   19   40 1
    36   20   21 ar
    37   20   41 1
    38   21   22 ar
    39   21   24 1
    40   22   23 ar
    41   22   42 1
    42   23   43 1
    43   25   30 ar
    44   25   26 ar
    45   26   27 ar
    46   26   44 1
    47   27   28 ar
    48   27   45 1
    49   28   29 ar
    50   28   46 1
    51   29   30 ar
    52   29   47 1
    53   30   48 1
    54   31   49 1
    55   31   50 1
    56   51   52 1
@<TRIPOS>MOLECULE
ZINC03815677
   54    58     0     0     0
SMALL
USER_CHARGES

@<TRIPOS>ATOM
      1 C1         -0.0127    1.0858    0.0080 C.3       1 <0>         0.0265
      2 O1         -0.6816    1.5467    1.1837 O.3       1 <0>        -0.3166
      3 C2         -1.9749    1.1630    1.3482 C.ar      1 <0>         0.1268
      4 C3         -2.5894    0.3641    0.3946 C.ar      1 <0>        -0.1949
      5 C4         -3.9023   -0.0288    0.5668 C.ar      1 <0>        -0.0805
      6 C5         -4.6076    0.3820    1.6831 C.ar      1 <0>        -0.1307
      7 C6         -3.9993    1.1827    2.6318 C.ar      1 <0>        -0.0586
      8 C7         -2.6845    1.5741    2.4669 C.ar      1 <0>        -0.1262
      9 C8         -4.7711    1.6294    3.8467 C.3       1 <0>         0.0997
     10 O2         -5.4252    2.8686    3.5664 O.3       1 <0>        -0.2867
     11 C9         -6.1683    3.4122    4.5632 C.ar      1 <0>         0.2597
     12 C10        -6.2797    2.7837    5.7937 C.ar      1 <0>        -0.3507
     13 C11        -7.0517    3.3737    6.7908 C.ar      1 <0>         0.4802
     14 N1         -7.6802    4.5196    6.5892 N.ar      1 <0>        -0.5867
     15 C12        -7.6069    5.1641    5.4281 C.ar      1 <0>         0.3778
     16 C13        -6.8414    4.6298    4.3801 C.ar      1 <0>        -0.2085
     17 C14        -6.9684    5.5623    3.2514 C.2       1 <0>        -0.0771
     18 C15        -7.7823    6.5884    3.6861 C.2       1 <0>         0.1167
     19 N2         -8.1589    6.3436    4.9852 N.pl3     1 <0>        -0.5650
     20 H1         -8.7324    6.9201    5.5140 H         1 <0>         0.4230
     21 C16        -8.1847    7.7605    2.8844 C.ar      1 <0>        -0.0416
     22 C17        -8.6033    7.5952    1.5619 C.ar      1 <0>        -0.0580
     23 C18        -8.9835    8.6933    0.8197 C.ar      1 <0>        -0.1484
     24 C19        -8.9399    9.9605    1.3796 C.ar      1 <0>         0.1093
     25 C20        -8.5200   10.1313    2.6894 C.ar      1 <0>        -0.1500
     26 C21        -8.1429    9.0402    3.4432 C.ar      1 <0>        -0.0762
     27 F1         -9.3087   11.0333    0.6459 F         1 <0>        -0.1355
     28 C22        -6.3439    5.4304    1.9179 C.ar      1 <0>         0.0431
     29 C23        -6.6960    4.3819    1.0588 C.ar      1 <0>        -0.1468
     30 C24        -6.0917    4.2995   -0.1773 C.ar      1 <0>         0.1008
     31 N3         -5.1868    5.1854   -0.5500 N.ar      1 <0>        -0.4856
     32 C25        -4.8227    6.1858    0.2304 C.ar      1 <0>         0.0994
     33 C26        -5.3794    6.3470    1.4810 C.ar      1 <0>        -0.1564
     34 N4         -7.1640    2.7448    8.0253 N.pl3     1 <0>        -0.8446
     35 H2          0.0021   -0.0041    0.0020 H         1 <0>         0.0563
     36 H3          1.0099    1.4631    0.0003 H         1 <0>         0.1020
     37 H4         -0.5399    1.4469   -0.8751 H         1 <0>         0.0573
     38 H5         -2.0405    0.0467   -0.4796 H         1 <0>         0.1304
     39 H6         -4.3799   -0.6541   -0.1731 H         1 <0>         0.1292
     40 H7         -5.6353    0.0771    1.8139 H         1 <0>         0.1262
     41 H8         -2.2097    2.1994    3.2085 H         1 <0>         0.1311
     42 H9         -5.5154    0.8752    4.1019 H         1 <0>         0.0790
     43 H10        -4.0859    1.7616    4.6841 H         1 <0>         0.0769
     44 H11        -5.7734    1.8475    5.9769 H         1 <0>         0.1401
     45 H12        -8.6331    6.6088    1.1231 H         1 <0>         0.1359
     46 H13        -9.3119    8.5662   -0.2013 H         1 <0>         0.1412
     47 H14        -8.4877   11.1211    3.1202 H         1 <0>         0.1409
     48 H15        -7.8155    9.1745    4.4636 H         1 <0>         0.1345
     49 H16        -7.4322    3.6510    1.3589 H         1 <0>         0.1304
     50 H17        -6.3593    3.4968   -0.8485 H         1 <0>         0.1516
     51 H18        -4.0781    6.8875   -0.1156 H         1 <0>         0.1526
     52 H19        -5.0767    7.1679    2.1142 H         1 <0>         0.1303
     53 H20        -6.7071    1.9041    8.1846 H         1 <0>         0.4107
     54 H21        -7.6991    3.1467    8.7275 H         1 <0>         0.4058
@<TRIPOS>BOND
     1    1    2 1
     2    1   35 1
     3    1   36 1
     4    1   37 1
     5    2    3 1
     6    3    8 ar
     7    3    4 ar
     8    4    5 ar
     9    4   38 1
    10    5    6 ar
    11    5   39 1
    12    6    7 ar
    13    6   40 1
    14    7    8 ar
    15    7    9 1
    16    8   41 1
    17    9   10 1
    18    9   42 1
    19    9   43 1
    20   10   11 1
    21   11   16 ar
    22   11   12 ar
    23   12   13 ar
    24   12   44 1
    25   13   14 ar
    26   13   34 1
    27   14   15 ar
    28   15   19 1
    29   15   16 ar
    30   16   17 1
    31   17   18 2
    32   17   28 1
    33   18   19 1
    34   18   21 1
    35   19   20 1
    36   21   26 ar
    37   21   22 ar
    38   22   23 ar
    39   22   45 1
    40   23   24 ar
    41   23   46 1
    42   24   25 ar
    43   24   27 1
    44   25   26 ar
    45   25   47 1
    46   26   48 1
    47   28   33 ar
    48   28   29 ar
    49   29   30 ar
    50   29   49 1
    51   30   31 ar
    52   30   50 1
    53   31   32 ar
    54   32   33 ar
    55   32   51 1
    56   33   52 1
    57   34   53 1
    58   34   54 1
@<TRIPOS>MOLECULE
ZINC03815677
   55    59     0     0     0
SMALL
USER_CHARGES

@<TRIPOS>ATOM
      1 C1         -0.0127    1.0858    0.0080 C.3       1 <0>         0.0243
      2 O1         -0.6816    1.5467    1.1837 O.3       1 <0>        -0.3151
      3 C2         -1.9749    1.1630    1.3482 C.ar      1 <0>         0.1309
      4 C3         -2.5894    0.3641    0.3946 C.ar      1 <0>        -0.1855
      5 C4         -3.9023   -0.0288    0.5668 C.ar      1 <0>        -0.0776
      6 C5         -4.6076    0.3820    1.6831 C.ar      1 <0>        -0.1284
      7 C6         -3.9993    1.1827    2.6318 C.ar      1 <0>        -0.0760
      8 C7         -2.6845    1.5741    2.4669 C.ar      1 <0>        -0.1247
      9 C8         -4.7711    1.6294    3.8467 C.3       1 <0>         0.0914
     10 O2         -5.4252    2.8686    3.5664 O.3       1 <0>        -0.2576
     11 C9         -6.1683    3.4122    4.5632 C.ar      1 <0>         0.3452
     12 C10        -6.2797    2.7837    5.7937 C.ar      1 <0>        -0.3373
     13 C11        -7.0517    3.3737    6.7908 C.ar      1 <0>         0.5352
     14 C12        -7.6069    5.1641    5.4281 C.ar      1 <0>         0.3310
     15 C13        -6.8414    4.6298    4.3801 C.ar      1 <0>        -0.1582
     16 C14        -6.9684    5.5623    3.2514 C.2       1 <0>        -0.0396
     17 C15        -7.7823    6.5884    3.6861 C.2       1 <0>         0.1439
     18 N1         -8.1589    6.3436    4.9852 N.pl3     1 <0>        -0.5434
     19 H1         -8.7324    6.9201    5.5140 H         1 <0>         0.4370
     20 C16        -8.1847    7.7605    2.8844 C.ar      1 <0>        -0.0724
     21 C17        -8.6033    7.5952    1.5619 C.ar      1 <0>        -0.0469
     22 C18        -8.9835    8.6933    0.8197 C.ar      1 <0>        -0.1481
     23 C19        -8.9399    9.9605    1.3796 C.ar      1 <0>         0.1304
     24 C20        -8.5200   10.1313    2.6894 C.ar      1 <0>        -0.1503
     25 C21        -8.1429    9.0402    3.4432 C.ar      1 <0>        -0.0682
     26 F1         -9.3087   11.0333    0.6459 F         1 <0>        -0.1263
     27 C22        -6.3439    5.4304    1.9179 C.ar      1 <0>         0.0121
     28 C23        -6.6960    4.3819    1.0588 C.ar      1 <0>        -0.1445
     29 C24        -6.0917    4.2995   -0.1773 C.ar      1 <0>         0.1081
     30 N2         -5.1868    5.1854   -0.5500 N.ar      1 <0>        -0.4724
     31 C25        -4.8227    6.1858    0.2304 C.ar      1 <0>         0.1074
     32 C26        -5.3794    6.3470    1.4810 C.ar      1 <0>        -0.1473
     33 N3         -7.1640    2.7448    8.0253 N.pl3     1 <0>        -0.8179
     34 H2          0.0021   -0.0041    0.0020 H         1 <0>         0.0593
     35 H3          1.0099    1.4631    0.0003 H         1 <0>         0.1060
     36 H4         -0.5399    1.4469   -0.8751 H         1 <0>         0.0596
     37 H5         -2.0405    0.0467   -0.4796 H         1 <0>         0.1351
     38 H6         -4.3799   -0.6541   -0.1731 H         1 <0>         0.1335
     39 H7         -5.6353    0.0771    1.8139 H         1 <0>         0.1276
     40 H8         -2.2097    2.1994    3.2085 H         1 <0>         0.1324
     41 H9         -5.5154    0.8752    4.1019 H         1 <0>         0.0949
     42 H10        -4.0859    1.7616    4.6841 H         1 <0>         0.0928
     43 H11        -5.7734    1.8475    5.9769 H         1 <0>         0.1864
     44 H12        -8.6331    6.6088    1.1231 H         1 <0>         0.1391
     45 H13        -9.3119    8.5662   -0.2013 H         1 <0>         0.1481
     46 H14        -8.4877   11.1211    3.1202 H         1 <0>         0.1471
     47 H15        -7.8155    9.1745    4.4636 H         1 <0>         0.1347
     48 H16        -7.4322    3.6510    1.3589 H         1 <0>         0.1338
     49 H17        -6.3593    3.4968   -0.8485 H         1 <0>         0.1583
     50 H18        -4.0781    6.8875   -0.1156 H         1 <0>         0.1598
     51 H19        -5.0767    7.1679    2.1142 H         1 <0>         0.1352
     52 H20        -6.7071    1.9041    8.1846 H         1 <0>         0.4399
     53 H21        -7.6991    3.1467    8.7275 H         1 <0>         0.4217
     54 N4         -7.7240    4.5511    6.6488 N.ar      1 <0>        -0.5648
     55 H22        -8.2837    4.9540    7.4094 H         1 <0>         0.4603
@<TRIPOS>BOND
     1    1    2 1
     2    1   34 1
     3    1   35 1
     4    1   36 1
     5    2    3 1
     6    3    8 ar
     7    3    4 ar
     8    4    5 ar
     9    4   37 1
    10    5    6 ar
    11    5   38 1
    12    6    7 ar
    13    6   39 1
    14    7    8 ar
    15    7    9 1
    16    8   40 1
    17    9   10 1
    18    9   41 1
    19    9   42 1
    20   10   11 1
    21   11   15 ar
    22   11   12 ar
    23   12   13 ar
    24   12   43 1
    25   13   33 1
    26   13   54 ar
    27   14   18 1
    28   14   15 ar
    29   14   54 ar
    30   15   16 1
    31   16   17 2
    32   16   27 1
    33   17   18 1
    34   17   20 1
    35   18   19 1
    36   20   25 ar
    37   20   21 ar
    38   21   22 ar
    39   21   44 1
    40   22   23 ar
    41   22   45 1
    42   23   24 ar
    43   23   26 1
    44   24   25 ar
    45   24   46 1
    46   25   47 1
    47   27   32 ar
    48   27   28 ar
    49   28   29 ar
    50   28   48 1
    51   29   30 ar
    52   29   49 1
    53   30   31 ar
    54   31   32 ar
    55   31   50 1
    56   32   51 1
    57   33   52 1
    58   33   53 1
    59   54   55 1
@<TRIPOS>MOLECULE
ZINC03815678
   55    59     0     0     0
SMALL
USER_CHARGES

@<TRIPOS>ATOM
      1 C1         -0.0127    1.0858    0.0080 C.3       1 <0>         0.0267
      2 O1         -0.6816    1.5467    1.1837 O.3       1 <0>        -0.3166
      3 C2         -1.9749    1.1630    1.3482 C.ar      1 <0>         0.1260
      4 C3         -2.5894    0.3641    0.3946 C.ar      1 <0>        -0.1962
      5 C4         -3.9023   -0.0288    0.5668 C.ar      1 <0>        -0.0813
      6 C5         -4.6076    0.3820    1.6831 C.ar      1 <0>        -0.1298
      7 C6         -3.9993    1.1827    2.6318 C.ar      1 <0>        -0.0562
      8 C7         -2.6845    1.5741    2.4669 C.ar      1 <0>        -0.1250
      9 C8         -4.7711    1.6294    3.8467 C.3       1 <0>         0.0990
     10 O2         -5.4252    2.8686    3.5664 O.3       1 <0>        -0.2840
     11 C9         -6.1683    3.4122    4.5632 C.ar      1 <0>         0.2608
     12 C10        -6.2797    2.7837    5.7936 C.ar      1 <0>        -0.3534
     13 C11        -7.0513    3.3739    6.7910 C.ar      1 <0>         0.4793
     14 N1         -7.6790    4.5202    6.5899 N.ar      1 <0>        -0.5881
     15 C12        -7.6059    5.1649    5.4289 C.ar      1 <0>         0.3769
     16 C13        -6.8415    4.6300    4.3800 C.ar      1 <0>        -0.2118
     17 C14        -6.9669    5.5629    3.2521 C.2       1 <0>        -0.0638
     18 C15        -7.7787    6.5894    3.6860 C.2       1 <0>         0.1041
     19 N2         -8.1564    6.3450    4.9867 N.pl3     1 <0>        -0.5670
     20 H1         -8.7289    6.9223    5.5156 H         1 <0>         0.4216
     21 C16        -8.1780    7.7627    2.8844 C.ar      1 <0>        -0.0369
     22 C17        -8.5960    7.5988    1.5615 C.ar      1 <0>        -0.0565
     23 C18        -8.9720    8.6981    0.8190 C.ar      1 <0>        -0.1489
     24 C19        -8.9261    9.9650    1.3794 C.ar      1 <0>         0.1064
     25 C20        -8.5076   10.1343    2.6898 C.ar      1 <0>        -0.1510
     26 C21        -8.1338    9.0420    3.4438 C.ar      1 <0>        -0.0785
     27 F1         -9.2902   11.0390    0.6452 F         1 <0>        -0.1368
     28 C22        -6.3412    5.4304    1.9176 C.ar      1 <0>        -0.0058
     29 C23        -6.7055    4.3801    1.0741 C.ar      1 <0>        -0.0910
     30 C24        -6.1223    4.2652   -0.1710 C.ar      1 <0>        -0.1173
     31 C25        -5.1701    5.1821   -0.5794 C.ar      1 <0>        -0.1186
     32 C26        -4.8006    6.2226    0.2544 C.ar      1 <0>        -0.1194
     33 C27        -5.3801    6.3518    1.4997 C.ar      1 <0>        -0.1006
     34 N3         -7.1638    2.7447    8.0253 N.pl3     1 <0>        -0.8456
     35 H2          0.0021   -0.0041    0.0020 H         1 <0>         0.0561
     36 H3          1.0099    1.4631    0.0003 H         1 <0>         0.1017
     37 H4         -0.5399    1.4469   -0.8751 H         1 <0>         0.0565
     38 H5         -2.0405    0.0467   -0.4796 H         1 <0>         0.1297
     39 H6         -4.3799   -0.6541   -0.1731 H         1 <0>         0.1283
     40 H7         -5.6353    0.0771    1.8139 H         1 <0>         0.1258
     41 H8         -2.2097    2.1994    3.2085 H         1 <0>         0.1315
     42 H9         -5.5154    0.8752    4.1019 H         1 <0>         0.0781
     43 H10        -4.0859    1.7616    4.6841 H         1 <0>         0.0765
     44 H11        -5.7736    1.8473    5.9766 H         1 <0>         0.1389
     45 H12        -8.6279    6.6126    1.1224 H         1 <0>         0.1379
     46 H13        -9.2989    8.5723   -0.2026 H         1 <0>         0.1405
     47 H14        -8.4739   11.1239    3.1212 H         1 <0>         0.1395
     48 H15        -7.8073    9.1753    4.4645 H         1 <0>         0.1333
     49 H16        -7.4452    3.6610    1.3937 H         1 <0>         0.1175
     50 H17        -6.4062    3.4550   -0.8262 H         1 <0>         0.1186
     51 H18        -4.7135    5.0854   -1.5533 H         1 <0>         0.1171
     52 H19        -4.0567    6.9351   -0.0703 H         1 <0>         0.1192
     53 H20        -5.0909    7.1644    2.1496 H         1 <0>         0.1173
     54 H21        -6.7074    1.9036    8.1842 H         1 <0>         0.4102
     55 H22        -7.6986    3.1466    8.7276 H         1 <0>         0.4053
@<TRIPOS>BOND
     1    1    2 1
     2    1   35 1
     3    1   36 1
     4    1   37 1
     5    2    3 1
     6    3    8 ar
     7    3    4 ar
     8    4    5 ar
     9    4   38 1
    10    5    6 ar
    11    5   39 1
    12    6    7 ar
    13    6   40 1
    14    7    8 ar
    15    7    9 1
    16    8   41 1
    17    9   10 1
    18    9   42 1
    19    9   43 1
    20   10   11 1
    21   11   16 ar
    22   11   12 ar
    23   12   13 ar
    24   12   44 1
    25   13   14 ar
    26   13   34 1
    27   14   15 ar
    28   15   19 1
    29   15   16 ar
    30   16   17 1
    31   17   18 2
    32   17   28 1
    33   18   19 1
    34   18   21 1
    35   19   20 1
    36   21   26 ar
    37   21   22 ar
    38   22   23 ar
    39   22   45 1
    40   23   24 ar
    41   23   46 1
    42   24   25 ar
    43   24   27 1
    44   25   26 ar
    45   25   47 1
    46   26   48 1
    47   28   33 ar
    48   28   29 ar
    49   29   30 ar
    50   29   49 1
    51   30   31 ar
    52   30   50 1
    53   31   32 ar
    54   31   51 1
    55   32   33 ar
    56   32   52 1
    57   33   53 1
    58   34   54 1
    59   34   55 1
@<TRIPOS>MOLECULE
ZINC03815678
   56    60     0     0     0
SMALL
USER_CHARGES

@<TRIPOS>ATOM
      1 C1         -0.0127    1.0858    0.0080 C.3       1 <0>         0.0246
      2 O1         -0.6816    1.5467    1.1837 O.3       1 <0>        -0.3150
      3 C2         -1.9749    1.1630    1.3482 C.ar      1 <0>         0.1300
      4 C3         -2.5894    0.3641    0.3946 C.ar      1 <0>        -0.1870
      5 C4         -3.9023   -0.0288    0.5668 C.ar      1 <0>        -0.0784
      6 C5         -4.6076    0.3820    1.6831 C.ar      1 <0>        -0.1276
      7 C6         -3.9993    1.1827    2.6318 C.ar      1 <0>        -0.0735
      8 C7         -2.6845    1.5741    2.4669 C.ar      1 <0>        -0.1235
      9 C8         -4.7711    1.6294    3.8467 C.3       1 <0>         0.0907
     10 O2         -5.4252    2.8686    3.5664 O.3       1 <0>        -0.2549
     11 C9         -6.1683    3.4122    4.5632 C.ar      1 <0>         0.3465
     12 C10        -6.2797    2.7837    5.7936 C.ar      1 <0>        -0.3397
     13 C11        -7.0513    3.3739    6.7910 C.ar      1 <0>         0.5343
     14 C12        -7.6059    5.1649    5.4289 C.ar      1 <0>         0.3289
     15 C13        -6.8415    4.6300    4.3800 C.ar      1 <0>        -0.1621
     16 C14        -6.9669    5.5629    3.2521 C.2       1 <0>        -0.0254
     17 C15        -7.7787    6.5894    3.6860 C.2       1 <0>         0.1310
     18 N1         -8.1564    6.3450    4.9867 N.pl3     1 <0>        -0.5443
     19 H1         -8.7289    6.9223    5.5156 H         1 <0>         0.4355
     20 C16        -8.1780    7.7627    2.8844 C.ar      1 <0>        -0.0676
     21 C17        -8.5960    7.5988    1.5615 C.ar      1 <0>        -0.0451
     22 C18        -8.9720    8.6981    0.8190 C.ar      1 <0>        -0.1486
     23 C19        -8.9261    9.9650    1.3794 C.ar      1 <0>         0.1274
     24 C20        -8.5076   10.1343    2.6898 C.ar      1 <0>        -0.1513
     25 C21        -8.1338    9.0420    3.4438 C.ar      1 <0>        -0.0706
     26 F1         -9.2902   11.0390    0.6452 F         1 <0>        -0.1278
     27 C22        -6.3412    5.4304    1.9176 C.ar      1 <0>        -0.0395
     28 C23        -6.7055    4.3801    1.0741 C.ar      1 <0>        -0.0873
     29 C24        -6.1223    4.2652   -0.1710 C.ar      1 <0>        -0.1146
     30 C25        -5.1701    5.1821   -0.5794 C.ar      1 <0>        -0.1019
     31 C26        -4.8006    6.2226    0.2544 C.ar      1 <0>        -0.1159
     32 C27        -5.3801    6.3518    1.4997 C.ar      1 <0>        -0.0903
     33 N2         -7.1638    2.7447    8.0253 N.pl3     1 <0>        -0.8194
     34 H2          0.0021   -0.0041    0.0020 H         1 <0>         0.0591
     35 H3          1.0099    1.4631    0.0003 H         1 <0>         0.1057
     36 H4         -0.5399    1.4469   -0.8751 H         1 <0>         0.0588
     37 H5         -2.0405    0.0467   -0.4796 H         1 <0>         0.1343
     38 H6         -4.3799   -0.6541   -0.1731 H         1 <0>         0.1326
     39 H7         -5.6353    0.0771    1.8139 H         1 <0>         0.1272
     40 H8         -2.2097    2.1994    3.2085 H         1 <0>         0.1329
     41 H9         -5.5154    0.8752    4.1019 H         1 <0>         0.0939
     42 H10        -4.0859    1.7616    4.6841 H         1 <0>         0.0923
     43 H11        -5.7736    1.8473    5.9766 H         1 <0>         0.1853
     44 H12        -8.6279    6.6126    1.1224 H         1 <0>         0.1412
     45 H13        -9.2989    8.5723   -0.2026 H         1 <0>         0.1473
     46 H14        -8.4739   11.1239    3.1212 H         1 <0>         0.1457
     47 H15        -7.8073    9.1753    4.4645 H         1 <0>         0.1334
     48 H16        -7.4452    3.6610    1.3937 H         1 <0>         0.1200
     49 H17        -6.4062    3.4550   -0.8262 H         1 <0>         0.1256
     50 H18        -4.7135    5.0854   -1.5533 H         1 <0>         0.1247
     51 H19        -4.0567    6.9351   -0.0703 H         1 <0>         0.1266
     52 H20        -5.0909    7.1644    2.1496 H         1 <0>         0.1213
     53 H21        -6.7074    1.9036    8.1842 H         1 <0>         0.4394
     54 H22        -7.6986    3.1466    8.7276 H         1 <0>         0.4211
     55 N3         -7.7228    4.5517    6.6496 N.ar      1 <0>        -0.5654
     56 H23        -8.2818    4.9550    7.4106 H         1 <0>         0.4594
@<TRIPOS>BOND
     1    1    2 1
     2    1   34 1
     3    1   35 1
     4    1   36 1
     5    2    3 1
     6    3    8 ar
     7    3    4 ar
     8    4    5 ar
     9    4   37 1
    10    5    6 ar
    11    5   38 1
    12    6    7 ar
    13    6   39 1
    14    7    8 ar
    15    7    9 1
    16    8   40 1
    17    9   10 1
    18    9   41 1
    19    9   42 1
    20   10   11 1
    21   11   15 ar
    22   11   12 ar
    23   12   13 ar
    24   12   43 1
    25   13   33 1
    26   13   55 ar
    27   14   18 1
    28   14   15 ar
    29   14   55 ar
    30   15   16 1
    31   16   17 2
    32   16   27 1
    33   17   18 1
    34   17   20 1
    35   18   19 1
    36   20   25 ar
    37   20   21 ar
    38   21   22 ar
    39   21   44 1
    40   22   23 ar
    41   22   45 1
    42   23   24 ar
    43   23   26 1
    44   24   25 ar
    45   24   46 1
    46   25   47 1
    47   27   32 ar
    48   27   28 ar
    49   28   29 ar
    50   28   48 1
    51   29   30 ar
    52   29   49 1
    53   30   31 ar
    54   30   50 1
    55   31   32 ar
    56   31   51 1
    57   32   52 1
    58   33   53 1
    59   33   54 1
    60   55   56 1
@<TRIPOS>MOLECULE
ZINC03815679
   51    55     0     0     0
SMALL
USER_CHARGES

@<TRIPOS>ATOM
      1 C1          1.1481    0.1487   -5.2076 C.ar      1 <0>        -0.1185
      2 C2          0.0682   -0.6553   -5.5267 C.ar      1 <0>        -0.1195
      3 C3          0.0824   -1.9958   -5.2009 C.ar      1 <0>        -0.1009
      4 C4          1.1892   -2.5405   -4.5485 C.ar      1 <0>        -0.0058
      5 C5          2.2728   -1.7232   -4.2248 C.ar      1 <0>        -0.0916
      6 C6          2.2485   -0.3853   -4.5608 C.ar      1 <0>        -0.1180
      7 C7          1.2110   -3.9777   -4.1961 C.2       1 <0>        -0.0649
      8 C8          1.2248   -4.5527   -2.8444 C.ar      1 <0>        -0.2115
      9 C9          1.2359   -4.0006   -1.5537 C.ar      1 <0>         0.2601
     10 C10         1.2571   -4.8680   -0.4733 C.ar      1 <0>        -0.3531
     11 C11         1.2724   -6.2414   -0.7041 C.ar      1 <0>         0.4793
     12 N1          1.2671   -6.7346   -1.9307 N.ar      1 <0>        -0.5877
     13 C12         1.2470   -5.9470   -3.0026 C.ar      1 <0>         0.3766
     14 N2          1.2380   -6.2160   -4.3513 N.pl3     1 <0>        -0.5669
     15 H1          1.2458   -7.1049   -4.7395 H         1 <0>         0.4218
     16 C13         1.2166   -5.0432   -5.0712 C.2       1 <0>         0.1053
     17 C14         1.2011   -4.9423   -6.5436 C.ar      1 <0>        -0.0377
     18 C15         2.0335   -4.0271   -7.1926 C.ar      1 <0>        -0.0563
     19 C16         2.0178   -3.9404   -8.5686 C.ar      1 <0>        -0.1489
     20 C17         1.1711   -4.7520   -9.3072 C.ar      1 <0>         0.1069
     21 C18         0.3395   -5.6585   -8.6687 C.ar      1 <0>        -0.1510
     22 C19         0.3499   -5.7576   -7.2935 C.ar      1 <0>        -0.0784
     23 F1          1.1559   -4.6586  -10.6549 F         1 <0>        -0.1366
     24 N3          1.2933   -7.1125    0.3788 N.pl3     1 <0>        -0.8455
     25 O1          1.2205   -2.6563   -1.3694 O.3       1 <0>        -0.2856
     26 C20         1.2273   -2.1863   -0.0199 C.3       1 <0>         0.0995
     27 C21         1.2082   -0.6795   -0.0127 C.ar      1 <0>        -0.1071
     28 C22         0.0021   -0.0041    0.0020 C.ar      1 <0>        -0.0621
     29 C23        -0.0167    1.3778    0.0096 C.ar      1 <0>        -0.1560
     30 C24         1.1732    2.0858    0.0021 C.ar      1 <0>         0.1118
     31 C25         2.3806    1.4083   -0.0131 C.ar      1 <0>        -0.1563
     32 C26         2.3969    0.0264   -0.0202 C.ar      1 <0>        -0.0624
     33 F2          1.1561    3.4366    0.0090 F         1 <0>        -0.1367
     34 H2          1.1322    1.1975   -5.4648 H         1 <0>         0.1179
     35 H3         -0.7878   -0.2325   -6.0316 H         1 <0>         0.1196
     36 H4         -0.7612   -2.6224   -5.4505 H         1 <0>         0.1174
     37 H5          3.1303   -2.1378   -3.7157 H         1 <0>         0.1174
     38 H6          3.0882    0.2476   -4.3142 H         1 <0>         0.1188
     39 H7          1.2614   -4.4836    0.5360 H         1 <0>         0.1389
     40 H8          2.6904   -3.3911   -6.6178 H         1 <0>         0.1379
     41 H9          2.6638   -3.2361   -9.0717 H         1 <0>         0.1406
     42 H10        -0.3182   -6.2883   -9.2495 H         1 <0>         0.1397
     43 H11        -0.2991   -6.4639   -6.7970 H         1 <0>         0.1333
     44 H12         1.2971   -6.7620    1.2832 H         1 <0>         0.4102
     45 H13         1.3041   -8.0709    0.2300 H         1 <0>         0.4055
     46 H14         2.1267   -2.5407    0.4837 H         1 <0>         0.0772
     47 H15         0.3470   -2.5634    0.5005 H         1 <0>         0.0768
     48 H16        -0.9259   -0.5565    0.0079 H         1 <0>         0.1344
     49 H17        -0.9591    1.9052    0.0169 H         1 <0>         0.1387
     50 H18         3.3093    1.9595   -0.0187 H         1 <0>         0.1388
     51 H19         3.3385   -0.5023   -0.0313 H         1 <0>         0.1347
@<TRIPOS>BOND
     1    1    6 ar
     2    1    2 ar
     3    1   34 1
     4    2    3 ar
     5    2   35 1
     6    3    4 ar
     7    3   36 1
     8    4    5 ar
     9    4    7 1
    10    5    6 ar
    11    5   37 1
    12    6   38 1
    13    7   16 2
    14    7    8 1
    15    8   13 ar
    16    8    9 ar
    17    9   10 ar
    18    9   25 1
    19   10   11 ar
    20   10   39 1
    21   11   12 ar
    22   11   24 1
    23   12   13 ar
    24   13   14 1
    25   14   15 1
    26   14   16 1
    27   16   17 1
    28   17   22 ar
    29   17   18 ar
    30   18   19 ar
    31   18   40 1
    32   19   20 ar
    33   19   41 1
    34   20   21 ar
    35   20   23 1
    36   21   22 ar
    37   21   42 1
    38   22   43 1
    39   24   44 1
    40   24   45 1
    41   25   26 1
    42   26   27 1
    43   26   46 1
    44   26   47 1
    45   27   32 ar
    46   27   28 ar
    47   28   29 ar
    48   28   48 1
    49   29   30 ar
    50   29   49 1
    51   30   31 ar
    52   30   33 1
    53   31   32 ar
    54   31   50 1
    55   32   51 1
@<TRIPOS>MOLECULE
ZINC03815679
   52    56     0     0     0
SMALL
USER_CHARGES

@<TRIPOS>ATOM
      1 C1          1.1481    0.1487   -5.2076 C.ar      1 <0>        -0.1018
      2 C2          0.0682   -0.6553   -5.5267 C.ar      1 <0>        -0.1160
      3 C3          0.0824   -1.9958   -5.2009 C.ar      1 <0>        -0.0906
      4 C4          1.1892   -2.5405   -4.5485 C.ar      1 <0>        -0.0395
      5 C5          2.2728   -1.7232   -4.2248 C.ar      1 <0>        -0.0879
      6 C6          2.2485   -0.3853   -4.5608 C.ar      1 <0>        -0.1153
      7 C7          1.2110   -3.9777   -4.1961 C.2       1 <0>        -0.0264
      8 C8          1.2248   -4.5527   -2.8444 C.ar      1 <0>        -0.1620
      9 C9          1.2359   -4.0006   -1.5537 C.ar      1 <0>         0.3461
     10 C10         1.2571   -4.8680   -0.4733 C.ar      1 <0>        -0.3397
     11 C11         1.2724   -6.2414   -0.7041 C.ar      1 <0>         0.5346
     12 C12         1.2470   -5.9470   -3.0026 C.ar      1 <0>         0.3285
     13 N1          1.2380   -6.2160   -4.3513 N.pl3     1 <0>        -0.5442
     14 H1          1.2458   -7.1049   -4.7395 H         1 <0>         0.4357
     15 C13         1.2166   -5.0432   -5.0712 C.2       1 <0>         0.1321
     16 C14         1.2011   -4.9423   -6.5436 C.ar      1 <0>        -0.0684
     17 C15         2.0335   -4.0271   -7.1926 C.ar      1 <0>        -0.0450
     18 C16         2.0178   -3.9404   -8.5686 C.ar      1 <0>        -0.1486
     19 C17         1.1711   -4.7520   -9.3072 C.ar      1 <0>         0.1279
     20 C18         0.3395   -5.6585   -8.6687 C.ar      1 <0>        -0.1513
     21 C19         0.3499   -5.7576   -7.2935 C.ar      1 <0>        -0.0705
     22 F1          1.1559   -4.6586  -10.6549 F         1 <0>        -0.1276
     23 N2          1.2933   -7.1125    0.3788 N.pl3     1 <0>        -0.8190
     24 O1          1.2205   -2.6563   -1.3694 O.3       1 <0>        -0.2569
     25 C20         1.2273   -2.1863   -0.0199 C.3       1 <0>         0.0915
     26 C21         1.2082   -0.6795   -0.0127 C.ar      1 <0>        -0.1265
     27 C22         0.0021   -0.0041    0.0020 C.ar      1 <0>        -0.0573
     28 C23        -0.0167    1.3778    0.0096 C.ar      1 <0>        -0.1558
     29 C24         1.1732    2.0858    0.0021 C.ar      1 <0>         0.1260
     30 C25         2.3806    1.4083   -0.0131 C.ar      1 <0>        -0.1561
     31 C26         2.3969    0.0264   -0.0202 C.ar      1 <0>        -0.0578
     32 F2          1.1561    3.4366    0.0090 F         1 <0>        -0.1300
     33 H2          1.1322    1.1975   -5.4648 H         1 <0>         0.1255
     34 H3         -0.7878   -0.2325   -6.0316 H         1 <0>         0.1270
     35 H4         -0.7612   -2.6224   -5.4505 H         1 <0>         0.1215
     36 H5          3.1303   -2.1378   -3.7157 H         1 <0>         0.1200
     37 H6          3.0882    0.2476   -4.3142 H         1 <0>         0.1259
     38 H7          1.2614   -4.4836    0.5360 H         1 <0>         0.1852
     39 H8          2.6904   -3.3911   -6.6178 H         1 <0>         0.1411
     40 H9          2.6638   -3.2361   -9.0717 H         1 <0>         0.1475
     41 H10        -0.3182   -6.2883   -9.2495 H         1 <0>         0.1458
     42 H11        -0.2991   -6.4639   -6.7970 H         1 <0>         0.1334
     43 H12         1.2971   -6.7620    1.2832 H         1 <0>         0.4394
     44 H13         1.3041   -8.0709    0.2300 H         1 <0>         0.4213
     45 H14         2.1267   -2.5407    0.4837 H         1 <0>         0.0929
     46 H15         0.3470   -2.5634    0.5005 H         1 <0>         0.0925
     47 H16        -0.9259   -0.5565    0.0079 H         1 <0>         0.1359
     48 H17        -0.9591    1.9052    0.0169 H         1 <0>         0.1431
     49 H18         3.3093    1.9595   -0.0187 H         1 <0>         0.1433
     50 H19         3.3385   -0.5023   -0.0313 H         1 <0>         0.1362
     51 N3          1.2680   -6.8144   -1.9407 N.ar      1 <0>        -0.5651
     52 H20         1.2797   -7.8330   -2.0693 H         1 <0>         0.4596
@<TRIPOS>BOND
     1    1    6 ar
     2    1    2 ar
     3    1   33 1
     4    2    3 ar
     5    2   34 1
     6    3    4 ar
     7    3   35 1
     8    4    5 ar
     9    4    7 1
    10    5    6 ar
    11    5   36 1
    12    6   37 1
    13    7   15 2
    14    7    8 1
    15    8   12 ar
    16    8    9 ar
    17    9   10 ar
    18    9   24 1
    19   10   11 ar
    20   10   38 1
    21   11   23 1
    22   11   51 ar
    23   12   13 1
    24   12   51 ar
    25   13   14 1
    26   13   15 1
    27   15   16 1
    28   16   21 ar
    29   16   17 ar
    30   17   18 ar
    31   17   39 1
    32   18   19 ar
    33   18   40 1
    34   19   20 ar
    35   19   22 1
    36   20   21 ar
    37   20   41 1
    38   21   42 1
    39   23   43 1
    40   23   44 1
    41   24   25 1
    42   25   26 1
    43   25   45 1
    44   25   46 1
    45   26   31 ar
    46   26   27 ar
    47   27   28 ar
    48   27   47 1
    49   28   29 ar
    50   28   48 1
    51   29   30 ar
    52   29   32 1
    53   30   31 ar
    54   30   49 1
    55   31   50 1
    56   51   52 1
@<TRIPOS>MOLECULE
ZINC03815680
   44    47     0     0     0
SMALL
USER_CHARGES

@<TRIPOS>ATOM
      1 C1         -2.2133    4.2959    0.9185 C.ar      1 <0>        -0.0823
      2 C2         -1.0855    3.5331    0.6959 C.ar      1 <0>        -0.1167
      3 C3         -1.2111    2.1692    0.4274 C.ar      1 <0>         0.0363
      4 C4         -2.4788    1.5872    0.3807 C.ar      1 <0>        -0.0784
      5 C5         -3.5983    2.3603    0.6098 C.ar      1 <0>        -0.0832
      6 C6         -3.4668    3.7117    0.8760 C.ar      1 <0>        -0.1710
      7 C7         -4.6944    4.5511    1.1201 C.3       1 <0>         0.0518
      8 C8         -0.0068    1.3459    0.1874 C.2       1 <0>         0.2004
      9 N1         -0.0043    0.0090   -0.0835 N.2       1 <0>        -0.4358
     10 H1          1.5055    2.7311    0.3759 H         1 <0>         0.4299
     11 C9          1.3092   -0.3700   -0.2463 C.2       1 <0>         0.0662
     12 C10         2.0714    0.7711   -0.0554 C.2       1 <0>         0.0527
     13 N2          1.2313    1.7855    0.2011 N.pl3     1 <0>        -0.5042
     14 C11         3.5488    0.8573   -0.1285 C.ar      1 <0>        -0.0487
     15 C12         4.3371   -0.1356    0.4523 C.ar      1 <0>        -0.0552
     16 C13         5.7121   -0.0530    0.3779 C.ar      1 <0>        -0.1451
     17 C14         6.3103    1.0191   -0.2644 C.ar      1 <0>         0.1182
     18 C15         5.5314    2.0108   -0.8387 C.ar      1 <0>        -0.1486
     19 C16         4.1555    1.9347   -0.7736 C.ar      1 <0>        -0.0795
     20 F1          7.6574    1.0980   -0.3308 F         1 <0>        -0.1301
     21 C17         1.8067   -1.7240   -0.5536 C.ar      1 <0>         0.0325
     22 C18         2.7528   -1.9314   -1.5669 C.ar      1 <0>        -0.1517
     23 C19         3.1934   -3.2133   -1.8168 C.ar      1 <0>         0.1048
     24 N3          2.7295   -4.2370   -1.1244 N.ar      1 <0>        -0.4781
     25 C20         1.8348   -4.0873   -0.1655 C.ar      1 <0>         0.1035
     26 C21         1.3426   -2.8405    0.1556 C.ar      1 <0>        -0.1467
     27 H2         -2.1176    5.3514    1.1261 H         1 <0>         0.1381
     28 H3         -0.1077    3.9904    0.7291 H         1 <0>         0.1306
     29 H4         -2.5830    0.5333    0.1690 H         1 <0>         0.1508
     30 H5         -4.5796    1.9104    0.5777 H         1 <0>         0.1400
     31 H6         -5.4735    3.9338    1.5674 H         1 <0>         0.1428
     32 H7         -4.4464    5.3695    1.7960 H         1 <0>         0.1389
     33 H8         -5.3506    4.3611   -0.8220 H         1 <0>         0.4373
     34 H9         -5.9983    5.6653   -0.0186 H         1 <0>         0.4403
     35 H10         3.8717   -0.9696    0.9567 H         1 <0>         0.1361
     36 H11         6.3234   -0.8233    0.8245 H         1 <0>         0.1456
     37 H12         6.0021    2.8450   -1.3376 H         1 <0>         0.1437
     38 H13         3.5493    2.7084   -1.2210 H         1 <0>         0.1303
     39 H14         3.1336   -1.0992   -2.1403 H         1 <0>         0.1341
     40 H15         3.9249   -3.3832   -2.5929 H         1 <0>         0.1603
     41 H16         1.4832   -4.9539    0.3748 H         1 <0>         0.1608
     42 H17         0.6109   -2.7256    0.9416 H         1 <0>         0.1374
     43 N4         -5.1550    5.1122   -0.1622 N.4       1 <0>        -0.6463
     44 H18        -4.4204    5.7158   -0.5499 H         1 <0>         0.4383
@<TRIPOS>BOND
     1    1    6 ar
     2    1    2 ar
     3    1   27 1
     4    2    3 ar
     5    2   28 1
     6    3    4 ar
     7    3    8 1
     8    4    5 ar
     9    4   29 1
    10    5    6 ar
    11    5   30 1
    12    6    7 1
    13    7   31 1
    14    7   32 1
    15    7   43 1
    16    8    9 2
    17    8   13 1
    18    9   11 1
    19   10   13 1
    20   11   12 2
    21   11   21 1
    22   12   13 1
    23   12   14 1
    24   14   19 ar
    25   14   15 ar
    26   15   16 ar
    27   15   35 1
    28   16   17 ar
    29   16   36 1
    30   17   18 ar
    31   17   20 1
    32   18   19 ar
    33   18   37 1
    34   19   38 1
    35   21   26 ar
    36   21   22 ar
    37   22   23 ar
    38   22   39 1
    39   23   24 ar
    40   23   40 1
    41   24   25 ar
    42   25   26 ar
    43   25   41 1
    44   26   42 1
    45   33   43 1
    46   34   43 1
    47   43   44 1
@<TRIPOS>MOLECULE
ZINC03815680
   45    48     0     0     0
SMALL
USER_CHARGES

@<TRIPOS>ATOM
      1 C1         -2.2133    4.2959    0.9185 C.ar      1 <0>        -0.0769
      2 C2         -1.0855    3.5331    0.6959 C.ar      1 <0>        -0.0774
      3 C3         -1.2111    2.1692    0.4274 C.ar      1 <0>        -0.0414
      4 C4         -2.4788    1.5872    0.3807 C.ar      1 <0>        -0.0750
      5 C5         -3.5983    2.3603    0.6098 C.ar      1 <0>        -0.0763
      6 C6         -3.4668    3.7117    0.8760 C.ar      1 <0>        -0.1262
      7 C7         -4.6944    4.5511    1.1201 C.3       1 <0>         0.0426
      8 C8         -0.0068    1.3459    0.1874 C.cat     1 <0>         0.3531
      9 N1         -0.0043    0.0090   -0.0835 N.pl3     1 <0>        -0.4978
     10 H1         -0.8062   -0.5846   -0.1512 H         1 <0>         0.4725
     11 C9          1.3092   -0.3700   -0.2463 C.2       1 <0>         0.1316
     12 C10         2.0708    0.7730   -0.0648 C.2       1 <0>         0.1271
     13 C11         3.5478    0.8606   -0.1446 C.ar      1 <0>        -0.0964
     14 C12         4.3396   -0.1316    0.4327 C.ar      1 <0>        -0.0405
     15 C13         5.7142   -0.0478    0.3520 C.ar      1 <0>        -0.1456
     16 C14         6.3085    1.0249   -0.2930 C.ar      1 <0>         0.1507
     17 C15         5.5261    2.0159   -0.8637 C.ar      1 <0>        -0.1476
     18 C16         4.1506    1.9385   -0.7924 C.ar      1 <0>        -0.0600
     19 F1          7.6552    1.1050   -0.3654 F         1 <0>        -0.1165
     20 C17         1.8067   -1.7240   -0.5536 C.ar      1 <0>        -0.0307
     21 C18         2.7528   -1.9314   -1.5669 C.ar      1 <0>        -0.1278
     22 C19         3.1934   -3.2133   -1.8168 C.ar      1 <0>         0.1202
     23 N2          2.7295   -4.2370   -1.1244 N.ar      1 <0>        -0.4524
     24 C20         1.8348   -4.0873   -0.1655 C.ar      1 <0>         0.1191
     25 C21         1.3426   -2.8405    0.1556 C.ar      1 <0>        -0.1473
     26 H2         -2.1176    5.3514    1.1261 H         1 <0>         0.1559
     27 H3         -0.1077    3.9904    0.7291 H         1 <0>         0.1445
     28 H4         -2.5830    0.5333    0.1690 H         1 <0>         0.1444
     29 H5         -4.5796    1.9104    0.5777 H         1 <0>         0.1557
     30 H6         -5.4735    3.9338    1.5674 H         1 <0>         0.1514
     31 H7         -4.4464    5.3695    1.7960 H         1 <0>         0.1487
     32 H8         -5.3506    4.3611   -0.8220 H         1 <0>         0.4385
     33 H9         -5.9983    5.6653   -0.0186 H         1 <0>         0.4490
     34 H10         3.8773   -0.9660    0.9392 H         1 <0>         0.1406
     35 H11         6.3282   -0.8175    0.7959 H         1 <0>         0.1555
     36 H12         5.9938    2.8505   -1.3648 H         1 <0>         0.1546
     37 H13         3.5416    2.7116   -1.2371 H         1 <0>         0.1370
     38 H14         3.1336   -1.0992   -2.1403 H         1 <0>         0.1469
     39 H15         3.9249   -3.3832   -2.5929 H         1 <0>         0.1745
     40 H16         1.4832   -4.9539    0.3748 H         1 <0>         0.1734
     41 H17         0.6109   -2.7256    0.9416 H         1 <0>         0.1419
     42 N3         -5.1550    5.1122   -0.1622 N.4       1 <0>        -0.6464
     43 H18        -4.4204    5.7158   -0.5499 H         1 <0>         0.4408
     44 N4          1.2311    1.7872    0.1956 N.pl3     1 <0>        -0.4673
     45 H19         1.5125    2.7585    0.3738 H         1 <0>         0.4790
@<TRIPOS>BOND
     1    1    6 ar
     2    1    2 ar
     3    1   26 1
     4    2    3 ar
     5    2   27 1
     6    3    4 ar
     7    3    8 1
     8    4    5 ar
     9    4   28 1
    10    5    6 ar
    11    5   29 1
    12    6    7 1
    13    7   30 1
    14    7   31 1
    15    7   42 1
    16    8    9 1
    17    8   44 2
    18    9   10 1
    19    9   11 1
    20   11   12 2
    21   11   20 1
    22   12   13 1
    23   12   44 1
    24   13   18 ar
    25   13   14 ar
    26   14   15 ar
    27   14   34 1
    28   15   16 ar
    29   15   35 1
    30   16   17 ar
    31   16   19 1
    32   17   18 ar
    33   17   36 1
    34   18   37 1
    35   20   25 ar
    36   20   21 ar
    37   21   22 ar
    38   21   38 1
    39   22   23 ar
    40   22   39 1
    41   23   24 ar
    42   24   25 ar
    43   24   40 1
    44   25   41 1
    45   32   42 1
    46   33   42 1
    47   42   43 1
    48   44   45 1
@<TRIPOS>MOLECULE
ZINC03815680
   44    47     0     0     0
SMALL
USER_CHARGES

@<TRIPOS>ATOM
      1 C1         -2.2133    4.2959    0.9185 C.ar      1 <0>        -0.0823
      2 C2         -1.0855    3.5331    0.6959 C.ar      1 <0>        -0.1167
      3 C3         -1.2111    2.1692    0.4274 C.ar      1 <0>         0.0363
      4 C4         -2.4788    1.5872    0.3807 C.ar      1 <0>        -0.0784
      5 C5         -3.5983    2.3603    0.6098 C.ar      1 <0>        -0.0832
      6 C6         -3.4668    3.7117    0.8760 C.ar      1 <0>        -0.1710
      7 C7         -4.6944    4.5511    1.1201 C.3       1 <0>         0.0518
      8 C8         -0.0068    1.3459    0.1874 C.2       1 <0>         0.2004
      9 N1         -0.0043    0.0090   -0.0835 N.2       1 <0>        -0.4358
     10 H1          1.5055    2.7311    0.3759 H         1 <0>         0.4299
     11 C9          1.3092   -0.3700   -0.2463 C.2       1 <0>         0.0662
     12 C10         2.0714    0.7711   -0.0554 C.2       1 <0>         0.0527
     13 N2          1.2313    1.7855    0.2011 N.pl3     1 <0>        -0.5042
     14 C11         3.5488    0.8573   -0.1285 C.ar      1 <0>        -0.0487
     15 C12         4.3371   -0.1356    0.4523 C.ar      1 <0>        -0.0552
     16 C13         5.7121   -0.0530    0.3779 C.ar      1 <0>        -0.1451
     17 C14         6.3103    1.0191   -0.2644 C.ar      1 <0>         0.1182
     18 C15         5.5314    2.0108   -0.8387 C.ar      1 <0>        -0.1486
     19 C16         4.1555    1.9347   -0.7736 C.ar      1 <0>        -0.0795
     20 F1          7.6574    1.0980   -0.3308 F         1 <0>        -0.1301
     21 C17         1.8067   -1.7240   -0.5536 C.ar      1 <0>         0.0325
     22 C18         2.7528   -1.9314   -1.5669 C.ar      1 <0>        -0.1517
     23 C19         3.1934   -3.2133   -1.8168 C.ar      1 <0>         0.1048
     24 N3          2.7295   -4.2370   -1.1244 N.ar      1 <0>        -0.4781
     25 C20         1.8348   -4.0873   -0.1655 C.ar      1 <0>         0.1035
     26 C21         1.3426   -2.8405    0.1556 C.ar      1 <0>        -0.1467
     27 H2         -2.1176    5.3514    1.1261 H         1 <0>         0.1381
     28 H3         -0.1077    3.9904    0.7291 H         1 <0>         0.1306
     29 H4         -2.5830    0.5333    0.1690 H         1 <0>         0.1508
     30 H5         -4.5796    1.9104    0.5777 H         1 <0>         0.1400
     31 H6         -5.4735    3.9338    1.5674 H         1 <0>         0.1428
     32 H7         -4.4464    5.3695    1.7960 H         1 <0>         0.1389
     33 H8         -5.3506    4.3611   -0.8220 H         1 <0>         0.4373
     34 H9         -5.9983    5.6653   -0.0186 H         1 <0>         0.4403
     35 H10         3.8717   -0.9696    0.9567 H         1 <0>         0.1361
     36 H11         6.3234   -0.8233    0.8245 H         1 <0>         0.1456
     37 H12         6.0021    2.8450   -1.3376 H         1 <0>         0.1437
     38 H13         3.5493    2.7084   -1.2210 H         1 <0>         0.1303
     39 H14         3.1336   -1.0992   -2.1403 H         1 <0>         0.1341
     40 H15         3.9249   -3.3832   -2.5929 H         1 <0>         0.1603
     41 H16         1.4832   -4.9539    0.3748 H         1 <0>         0.1608
     42 H17         0.6109   -2.7256    0.9416 H         1 <0>         0.1374
     43 N4         -5.1550    5.1122   -0.1622 N.4       1 <0>        -0.6463
     44 H18        -4.4204    5.7158   -0.5499 H         1 <0>         0.4383
@<TRIPOS>BOND
     1    1    6 ar
     2    1    2 ar
     3    1   27 1
     4    2    3 ar
     5    2   28 1
     6    3    4 ar
     7    3    8 1
     8    4    5 ar
     9    4   29 1
    10    5    6 ar
    11    5   30 1
    12    6    7 1
    13    7   31 1
    14    7   32 1
    15    7   43 1
    16    8    9 2
    17    8   13 1
    18    9   11 1
    19   10   13 1
    20   11   12 2
    21   11   21 1
    22   12   13 1
    23   12   14 1
    24   14   19 ar
    25   14   15 ar
    26   15   16 ar
    27   15   35 1
    28   16   17 ar
    29   16   36 1
    30   17   18 ar
    31   17   20 1
    32   18   19 ar
    33   18   37 1
    34   19   38 1
    35   21   26 ar
    36   21   22 ar
    37   22   23 ar
    38   22   39 1
    39   23   24 ar
    40   23   40 1
    41   24   25 ar
    42   25   26 ar
    43   25   41 1
    44   26   42 1
    45   33   43 1
    46   34   43 1
    47   43   44 1
@<TRIPOS>MOLECULE
ZINC03815681
   49    52     0     0     0
SMALL
USER_CHARGES

@<TRIPOS>ATOM
      1 C1         -0.7766    1.6061   -3.7298 C.3       1 <0>        -0.1529
      2 C2         -0.0366    1.0992   -2.4903 C.3       1 <0>        -0.1206
      3 C3         -0.7527    1.5927   -1.2315 C.3       1 <0>        -0.1186
      4 C4         -0.0127    1.0858    0.0080 C.3       1 <0>         0.0557
      5 O1         -0.6816    1.5467    1.1837 O.3       1 <0>        -0.2945
      6 C5         -0.1496    1.1826    2.3779 C.ar      1 <0>         0.2602
      7 C6          0.9919    0.3986    2.4407 C.ar      1 <0>        -0.3502
      8 C7          1.5067    0.0464    3.6853 C.ar      1 <0>         0.4798
      9 N1          0.9307    0.4433    4.8075 N.ar      1 <0>        -0.5870
     10 C8         -0.1655    1.1964    4.8040 C.ar      1 <0>         0.3773
     11 C9         -0.7358    1.5938    3.5847 C.ar      1 <0>        -0.2096
     12 C10        -1.9109    2.4105    3.9186 C.2       1 <0>        -0.0786
     13 C11        -1.9711    2.4580    5.2964 C.2       1 <0>         0.1173
     14 N2         -0.9317    1.7244    5.8171 N.pl3     1 <0>        -0.5651
     15 H1         -0.7571    1.6052    6.7637 H         1 <0>         0.4230
     16 C12        -2.9946    3.1718    6.0847 C.ar      1 <0>        -0.0419
     17 C13        -3.3657    4.4730    5.7375 C.ar      1 <0>        -0.0582
     18 C14        -4.3266    5.1327    6.4742 C.ar      1 <0>        -0.1483
     19 C15        -4.9154    4.5117    7.5645 C.ar      1 <0>         0.1095
     20 C16        -4.5474    3.2227    7.9170 C.ar      1 <0>        -0.1499
     21 C17        -3.5918    2.5509    7.1844 C.ar      1 <0>        -0.0762
     22 F1         -5.8519    5.1653    8.2863 F         1 <0>        -0.1353
     23 C18        -2.8426    3.0537    2.9679 C.ar      1 <0>         0.0437
     24 C19        -2.4092    4.0784    2.1172 C.ar      1 <0>        -0.1490
     25 C20        -3.3107    4.6473    1.2434 C.ar      1 <0>         0.0990
     26 N3         -4.5676    4.2454    1.2089 N.ar      1 <0>        -0.4864
     27 C21        -5.0184    3.2865    1.9961 C.ar      1 <0>         0.0994
     28 C22        -4.1846    2.6594    2.8969 C.ar      1 <0>        -0.1566
     29 N4          2.6516   -0.7393    3.7498 N.pl3     1 <0>        -0.8447
     30 H2         -1.7991    1.2288   -3.7221 H         1 <0>         0.0563
     31 H3         -0.7913    2.6960   -3.7239 H         1 <0>         0.0567
     32 H4         -0.2664    1.2545   -4.6266 H         1 <0>         0.0578
     33 H5          0.9860    1.4765   -2.4981 H         1 <0>         0.0650
     34 H6         -0.0218    0.0093   -2.4963 H         1 <0>         0.0646
     35 H7         -1.7753    1.2154   -1.2238 H         1 <0>         0.0739
     36 H8         -0.7675    2.6825   -1.2255 H         1 <0>         0.0751
     37 H9          0.0021   -0.0041    0.0020 H         1 <0>         0.0655
     38 H10         1.0099    1.4631    0.0003 H         1 <0>         0.0663
     39 H11         1.4759    0.0647    1.5348 H         1 <0>         0.1393
     40 H12        -2.9041    4.9597    4.8910 H         1 <0>         0.1359
     41 H13        -4.6178    6.1370    6.2038 H         1 <0>         0.1414
     42 H14        -5.0098    2.7438    8.7674 H         1 <0>         0.1410
     43 H15        -3.3054    1.5468    7.4604 H         1 <0>         0.1345
     44 H16        -1.3835    4.4154    2.1432 H         1 <0>         0.1310
     45 H17        -2.9852    5.4356    0.5807 H         1 <0>         0.1534
     46 H18        -6.0549    2.9895    1.9339 H         1 <0>         0.1537
     47 H19        -4.5603    1.8756    3.5379 H         1 <0>         0.1308
     48 H20         3.0828   -1.0361    2.9332 H         1 <0>         0.4106
     49 H21         3.0192   -0.9909    4.6115 H         1 <0>         0.4058
@<TRIPOS>BOND
     1    1    2 1
     2    1   30 1
     3    1   31 1
     4    1   32 1
     5    2    3 1
     6    2   33 1
     7    2   34 1
     8    3    4 1
     9    3   35 1
    10    3   36 1
    11    4    5 1
    12    4   37 1
    13    4   38 1
    14    5    6 1
    15    6   11 ar
    16    6    7 ar
    17    7    8 ar
    18    7   39 1
    19    8    9 ar
    20    8   29 1
    21    9   10 ar
    22   10   14 1
    23   10   11 ar
    24   11   12 1
    25   12   13 2
    26   12   23 1
    27   13   14 1
    28   13   16 1
    29   14   15 1
    30   16   21 ar
    31   16   17 ar
    32   17   18 ar
    33   17   40 1
    34   18   19 ar
    35   18   41 1
    36   19   20 ar
    37   19   22 1
    38   20   21 ar
    39   20   42 1
    40   21   43 1
    41   23   28 ar
    42   23   24 ar
    43   24   25 ar
    44   24   44 1
    45   25   26 ar
    46   25   45 1
    47   26   27 ar
    48   27   28 ar
    49   27   46 1
    50   28   47 1
    51   29   48 1
    52   29   49 1
@<TRIPOS>MOLECULE
ZINC03815681
   50    53     0     0     0
SMALL
USER_CHARGES

@<TRIPOS>ATOM
      1 C1         -0.7766    1.6061   -3.7298 C.3       1 <0>        -0.1559
      2 C2         -0.0366    1.0992   -2.4903 C.3       1 <0>        -0.1204
      3 C3         -0.7527    1.5927   -1.2315 C.3       1 <0>        -0.1220
      4 C4         -0.0127    1.0858    0.0080 C.3       1 <0>         0.0424
      5 O1         -0.6816    1.5467    1.1837 O.3       1 <0>        -0.2638
      6 C5         -0.1496    1.1826    2.3779 C.ar      1 <0>         0.3456
      7 C6          0.9919    0.3986    2.4407 C.ar      1 <0>        -0.3363
      8 C7          1.5067    0.0464    3.6853 C.ar      1 <0>         0.5347
      9 C8         -0.1655    1.1964    4.8040 C.ar      1 <0>         0.3310
     10 C9         -0.7358    1.5938    3.5847 C.ar      1 <0>        -0.1588
     11 C10        -1.9109    2.4105    3.9186 C.2       1 <0>        -0.0411
     12 C11        -1.9711    2.4580    5.2964 C.2       1 <0>         0.1450
     13 N1         -0.9317    1.7244    5.8171 N.pl3     1 <0>        -0.5436
     14 H1         -0.7571    1.6052    6.7637 H         1 <0>         0.4371
     15 C12        -2.9946    3.1718    6.0847 C.ar      1 <0>        -0.0730
     16 C13        -3.3657    4.4730    5.7375 C.ar      1 <0>        -0.0470
     17 C14        -4.3266    5.1327    6.4742 C.ar      1 <0>        -0.1479
     18 C15        -4.9154    4.5117    7.5645 C.ar      1 <0>         0.1307
     19 C16        -4.5474    3.2227    7.9170 C.ar      1 <0>        -0.1501
     20 C17        -3.5918    2.5509    7.1844 C.ar      1 <0>        -0.0683
     21 F1         -5.8519    5.1653    8.2863 F         1 <0>        -0.1261
     22 C18        -2.8426    3.0537    2.9679 C.ar      1 <0>         0.0124
     23 C19        -2.4092    4.0784    2.1172 C.ar      1 <0>        -0.1469
     24 C20        -3.3107    4.6473    1.2434 C.ar      1 <0>         0.1064
     25 N2         -4.5676    4.2454    1.2089 N.ar      1 <0>        -0.4729
     26 C21        -5.0184    3.2865    1.9961 C.ar      1 <0>         0.1077
     27 C22        -4.1846    2.6594    2.8969 C.ar      1 <0>        -0.1476
     28 N3          2.6516   -0.7393    3.7498 N.pl3     1 <0>        -0.8179
     29 H2         -1.7991    1.2288   -3.7221 H         1 <0>         0.0585
     30 H3         -0.7913    2.6960   -3.7239 H         1 <0>         0.0589
     31 H4         -0.2664    1.2545   -4.6266 H         1 <0>         0.0625
     32 H5          0.9860    1.4765   -2.4981 H         1 <0>         0.0676
     33 H6         -0.0218    0.0093   -2.4963 H         1 <0>         0.0672
     34 H7         -1.7753    1.2154   -1.2238 H         1 <0>         0.0805
     35 H8         -0.7675    2.6825   -1.2255 H         1 <0>         0.0817
     36 H9          0.0021   -0.0041    0.0020 H         1 <0>         0.0826
     37 H10         1.0099    1.4631    0.0003 H         1 <0>         0.0835
     38 H11         1.4759    0.0647    1.5348 H         1 <0>         0.1857
     39 H12        -2.9041    4.9597    4.8910 H         1 <0>         0.1391
     40 H13        -4.6178    6.1370    6.2038 H         1 <0>         0.1483
     41 H14        -5.0098    2.7438    8.7674 H         1 <0>         0.1472
     42 H15        -3.3054    1.5468    7.4604 H         1 <0>         0.1346
     43 H16        -1.3835    4.4154    2.1432 H         1 <0>         0.1344
     44 H17        -2.9852    5.4356    0.5807 H         1 <0>         0.1602
     45 H18        -6.0549    2.9895    1.9339 H         1 <0>         0.1609
     46 H19        -4.5603    1.8756    3.5379 H         1 <0>         0.1357
     47 H20         3.0828   -1.0361    2.9332 H         1 <0>         0.4398
     48 H21         3.0192   -0.9909    4.6115 H         1 <0>         0.4218
     49 N4          0.9629    0.4213    4.8778 N.ar      1 <0>        -0.5647
     50 H22         1.3732    0.1403    5.7761 H         1 <0>         0.4605
@<TRIPOS>BOND
     1    1    2 1
     2    1   29 1
     3    1   30 1
     4    1   31 1
     5    2    3 1
     6    2   32 1
     7    2   33 1
     8    3    4 1
     9    3   34 1
    10    3   35 1
    11    4    5 1
    12    4   36 1
    13    4   37 1
    14    5    6 1
    15    6   10 ar
    16    6    7 ar
    17    7    8 ar
    18    7   38 1
    19    8   28 1
    20    8   49 ar
    21    9   13 1
    22    9   10 ar
    23    9   49 ar
    24   10   11 1
    25   11   12 2
    26   11   22 1
    27   12   13 1
    28   12   15 1
    29   13   14 1
    30   15   20 ar
    31   15   16 ar
    32   16   17 ar
    33   16   39 1
    34   17   18 ar
    35   17   40 1
    36   18   19 ar
    37   18   21 1
    38   19   20 ar
    39   19   41 1
    40   20   42 1
    41   22   27 ar
    42   22   23 ar
    43   23   24 ar
    44   23   43 1
    45   24   25 ar
    46   24   44 1
    47   25   26 ar
    48   26   27 ar
    49   26   45 1
    50   27   46 1
    51   28   47 1
    52   28   48 1
    53   49   50 1
@<TRIPOS>MOLECULE
ZINC03815682
   50    53     0     0     0
SMALL
USER_CHARGES

@<TRIPOS>ATOM
      1 C1         -0.7766    1.6061   -3.7298 C.3       1 <0>        -0.1525
      2 C2         -0.0366    1.0992   -2.4903 C.3       1 <0>        -0.1211
      3 C3         -0.7527    1.5927   -1.2315 C.3       1 <0>        -0.1182
      4 C4         -0.0127    1.0858    0.0080 C.3       1 <0>         0.0555
      5 O1         -0.6816    1.5467    1.1837 O.3       1 <0>        -0.2918
      6 C5         -0.1496    1.1827    2.3778 C.ar      1 <0>         0.2614
      7 C6          0.9918    0.3987    2.4407 C.ar      1 <0>        -0.3531
      8 C7          1.5071    0.0468    3.6853 C.ar      1 <0>         0.4789
      9 N1          0.9317    0.4444    4.8075 N.ar      1 <0>        -0.5884
     10 C8         -0.1645    1.1975    4.8042 C.ar      1 <0>         0.3764
     11 C9         -0.7358    1.5940    3.5848 C.ar      1 <0>        -0.2129
     12 C10        -1.9112    2.4097    3.9183 C.2       1 <0>        -0.0653
     13 C11        -1.9722    2.4579    5.2949 C.2       1 <0>         0.1046
     14 N2         -0.9303    1.7257    5.8171 N.pl3     1 <0>        -0.5671
     15 H1         -0.7553    1.6075    6.7639 H         1 <0>         0.4216
     16 C12        -2.9965    3.1715    6.0823 C.ar      1 <0>        -0.0372
     17 C13        -3.3683    4.4723    5.7342 C.ar      1 <0>        -0.0567
     18 C14        -4.3297    5.1320    6.4703 C.ar      1 <0>        -0.1487
     19 C15        -4.9193    4.5108    7.5601 C.ar      1 <0>         0.1066
     20 C16        -4.5504    3.2224    7.9137 C.ar      1 <0>        -0.1508
     21 C17        -3.5940    2.5508    7.1820 C.ar      1 <0>        -0.0786
     22 F1         -5.8569    5.1640    8.2808 F         1 <0>        -0.1367
     23 C18        -2.8442    3.0521    2.9661 C.ar      1 <0>        -0.0051
     24 C19        -2.3956    4.0712    2.1250 C.ar      1 <0>        -0.0933
     25 C20        -3.2693    4.6627    1.2361 C.ar      1 <0>        -0.1195
     26 C21        -4.5905    4.2551    1.1852 C.ar      1 <0>        -0.1195
     27 C22        -5.0427    3.2485    2.0198 C.ar      1 <0>        -0.1197
     28 C23        -4.1779    2.6453    2.9094 C.ar      1 <0>        -0.1011
     29 N3          2.6516   -0.7393    3.7496 N.pl3     1 <0>        -0.8457
     30 H2         -0.7913    2.6960   -3.7239 H         1 <0>         0.0562
     31 H3         -0.2664    1.2545   -4.6266 H         1 <0>         0.0573
     32 H4         -1.7991    1.2288   -3.7221 H         1 <0>         0.0562
     33 H5          0.9860    1.4765   -2.4981 H         1 <0>         0.0646
     34 H6         -0.0218    0.0093   -2.4963 H         1 <0>         0.0645
     35 H7         -1.7753    1.2154   -1.2238 H         1 <0>         0.0746
     36 H8         -0.7675    2.6825   -1.2255 H         1 <0>         0.0750
     37 H9          0.0021   -0.0041    0.0020 H         1 <0>         0.0648
     38 H10         1.0099    1.4631    0.0003 H         1 <0>         0.0652
     39 H11         1.4756    0.0644    1.5347 H         1 <0>         0.1382
     40 H12        -2.9062    4.9590    4.8880 H         1 <0>         0.1378
     41 H13        -4.6208    6.1362    6.1997 H         1 <0>         0.1407
     42 H14        -5.0128    2.7438    8.7643 H         1 <0>         0.1396
     43 H15        -3.3072    1.5470    7.4587 H         1 <0>         0.1333
     44 H16        -1.3657    4.3936    2.1672 H         1 <0>         0.1180
     45 H17        -2.9223    5.4488    0.5818 H         1 <0>         0.1200
     46 H18        -5.2716    4.7244    0.4908 H         1 <0>         0.1188
     47 H19        -6.0751    2.9345    1.9750 H         1 <0>         0.1201
     48 H20        -4.5321    1.8597    3.5604 H         1 <0>         0.1177
     49 H21         3.0824   -1.0366    2.9329 H         1 <0>         0.4100
     50 H22         3.0196   -0.9906    4.6112 H         1 <0>         0.4053
@<TRIPOS>BOND
     1    1    2 1
     2    1   30 1
     3    1   31 1
     4    1   32 1
     5    2    3 1
     6    2   33 1
     7    2   34 1
     8    3    4 1
     9    3   35 1
    10    3   36 1
    11    4    5 1
    12    4   37 1
    13    4   38 1
    14    5    6 1
    15    6   11 ar
    16    6    7 ar
    17    7    8 ar
    18    7   39 1
    19    8    9 ar
    20    8   29 1
    21    9   10 ar
    22   10   14 1
    23   10   11 ar
    24   11   12 1
    25   12   13 2
    26   12   23 1
    27   13   14 1
    28   13   16 1
    29   14   15 1
    30   16   21 ar
    31   16   17 ar
    32   17   18 ar
    33   17   40 1
    34   18   19 ar
    35   18   41 1
    36   19   20 ar
    37   19   22 1
    38   20   21 ar
    39   20   42 1
    40   21   43 1
    41   23   28 ar
    42   23   24 ar
    43   24   25 ar
    44   24   44 1
    45   25   26 ar
    46   25   45 1
    47   26   27 ar
    48   26   46 1
    49   27   28 ar
    50   27   47 1
    51   28   48 1
    52   29   49 1
    53   29   50 1
@<TRIPOS>MOLECULE
ZINC03815682
   51    54     0     0     0
SMALL
USER_CHARGES

@<TRIPOS>ATOM
      1 C1         -0.7766    1.6061   -3.7298 C.3       1 <0>        -0.1556
      2 C2         -0.0366    1.0992   -2.4903 C.3       1 <0>        -0.1208
      3 C3         -0.7527    1.5927   -1.2315 C.3       1 <0>        -0.1215
      4 C4         -0.0127    1.0858    0.0080 C.3       1 <0>         0.0423
      5 O1         -0.6816    1.5467    1.1837 O.3       1 <0>        -0.2611
      6 C5         -0.1496    1.1827    2.3778 C.ar      1 <0>         0.3470
      7 C6          0.9918    0.3987    2.4407 C.ar      1 <0>        -0.3389
      8 C7          1.5071    0.0468    3.6853 C.ar      1 <0>         0.5338
      9 C8         -0.1645    1.1975    4.8042 C.ar      1 <0>         0.3289
     10 C9         -0.7358    1.5940    3.5848 C.ar      1 <0>        -0.1628
     11 C10        -1.9112    2.4097    3.9183 C.2       1 <0>        -0.0270
     12 C11        -1.9722    2.4579    5.2949 C.2       1 <0>         0.1320
     13 N1         -0.9303    1.7257    5.8171 N.pl3     1 <0>        -0.5445
     14 H1         -0.7553    1.6075    6.7639 H         1 <0>         0.4356
     15 C12        -2.9965    3.1715    6.0823 C.ar      1 <0>        -0.0681
     16 C13        -3.3683    4.4723    5.7342 C.ar      1 <0>        -0.0453
     17 C14        -4.3297    5.1320    6.4703 C.ar      1 <0>        -0.1484
     18 C15        -4.9193    4.5108    7.5601 C.ar      1 <0>         0.1277
     19 C16        -4.5504    3.2224    7.9137 C.ar      1 <0>        -0.1512
     20 C17        -3.5940    2.5508    7.1820 C.ar      1 <0>        -0.0706
     21 F1         -5.8569    5.1640    8.2808 F         1 <0>        -0.1275
     22 C18        -2.8442    3.0521    2.9661 C.ar      1 <0>        -0.0392
     23 C19        -2.3956    4.0712    2.1250 C.ar      1 <0>        -0.0897
     24 C20        -3.2693    4.6627    1.2361 C.ar      1 <0>        -0.1168
     25 C21        -4.5905    4.2551    1.1852 C.ar      1 <0>        -0.1024
     26 C22        -5.0427    3.2485    2.0198 C.ar      1 <0>        -0.1161
     27 C23        -4.1779    2.6453    2.9094 C.ar      1 <0>        -0.0907
     28 N2          2.6516   -0.7393    3.7496 N.pl3     1 <0>        -0.8195
     29 H2         -0.7913    2.6960   -3.7239 H         1 <0>         0.0585
     30 H3         -0.2664    1.2545   -4.6266 H         1 <0>         0.0620
     31 H4         -1.7991    1.2288   -3.7221 H         1 <0>         0.0584
     32 H5          0.9860    1.4765   -2.4981 H         1 <0>         0.0672
     33 H6         -0.0218    0.0093   -2.4963 H         1 <0>         0.0671
     34 H7         -1.7753    1.2154   -1.2238 H         1 <0>         0.0812
     35 H8         -0.7675    2.6825   -1.2255 H         1 <0>         0.0816
     36 H9          0.0021   -0.0041    0.0020 H         1 <0>         0.0819
     37 H10         1.0099    1.4631    0.0003 H         1 <0>         0.0823
     38 H11         1.4756    0.0644    1.5347 H         1 <0>         0.1846
     39 H12        -2.9062    4.9590    4.8880 H         1 <0>         0.1411
     40 H13        -4.6208    6.1362    6.1997 H         1 <0>         0.1476
     41 H14        -5.0128    2.7438    8.7643 H         1 <0>         0.1458
     42 H15        -3.3072    1.5470    7.4587 H         1 <0>         0.1334
     43 H16        -1.3657    4.3936    2.1672 H         1 <0>         0.1205
     44 H17        -2.9223    5.4488    0.5818 H         1 <0>         0.1272
     45 H18        -5.2716    4.7244    0.4908 H         1 <0>         0.1266
     46 H19        -6.0751    2.9345    1.9750 H         1 <0>         0.1275
     47 H20        -4.5321    1.8597    3.5604 H         1 <0>         0.1217
     48 H21         3.0824   -1.0366    2.9329 H         1 <0>         0.4393
     49 H22         3.0196   -0.9906    4.6112 H         1 <0>         0.4212
     50 N3          0.9639    0.4224    4.8778 N.ar      1 <0>        -0.5653
     51 H23         1.3747    0.1420    5.7760 H         1 <0>         0.4594
@<TRIPOS>BOND
     1    1    2 1
     2    1   29 1
     3    1   30 1
     4    1   31 1
     5    2    3 1
     6    2   32 1
     7    2   33 1
     8    3    4 1
     9    3   34 1
    10    3   35 1
    11    4    5 1
    12    4   36 1
    13    4   37 1
    14    5    6 1
    15    6   10 ar
    16    6    7 ar
    17    7    8 ar
    18    7   38 1
    19    8   28 1
    20    8   50 ar
    21    9   13 1
    22    9   10 ar
    23    9   50 ar
    24   10   11 1
    25   11   12 2
    26   11   22 1
    27   12   13 1
    28   12   15 1
    29   13   14 1
    30   15   20 ar
    31   15   16 ar
    32   16   17 ar
    33   16   39 1
    34   17   18 ar
    35   17   40 1
    36   18   19 ar
    37   18   21 1
    38   19   20 ar
    39   19   41 1
    40   20   42 1
    41   22   27 ar
    42   22   23 ar
    43   23   24 ar
    44   23   43 1
    45   24   25 ar
    46   24   44 1
    47   25   26 ar
    48   25   45 1
    49   26   27 ar
    50   26   46 1
    51   27   47 1
    52   28   48 1
    53   28   49 1
    54   50   51 1
@<TRIPOS>MOLECULE
ZINC03815683
   52    55     0     0     0
SMALL
USER_CHARGES

@<TRIPOS>ATOM
      1 C1         -0.7766    1.6061   -3.7298 C.3       1 <0>        -0.1524
      2 C2         -0.0366    1.0992   -2.4903 C.3       1 <0>        -0.1216
      3 C3         -0.7527    1.5927   -1.2315 C.3       1 <0>        -0.1175
      4 C4         -0.0127    1.0858    0.0080 C.3       1 <0>         0.0524
      5 O1         -0.6816    1.5467    1.1837 O.3       1 <0>        -0.2879
      6 C5         -0.1496    1.1827    2.3778 C.ar      1 <0>         0.2578
      7 C6          0.9925    0.3982    2.4410 C.ar      1 <0>        -0.3111
      8 C7          1.5070    0.0469    3.6837 C.ar      1 <0>         0.4008
      9 N1          0.9327    0.4432    4.8053 N.ar      1 <0>        -0.5812
     10 C8         -0.1634    1.1962    4.8035 C.ar      1 <0>         0.3659
     11 C9         -0.7354    1.5936    3.5845 C.ar      1 <0>        -0.1961
     12 C10        -1.9102    2.4096    3.9192 C.2       1 <0>        -0.0679
     13 C11        -1.9701    2.4572    5.2959 C.2       1 <0>         0.1142
     14 N2         -0.9286    1.7241    5.8170 N.pl3     1 <0>        -0.5645
     15 H1         -0.7534    1.6051    6.7636 H         1 <0>         0.4232
     16 C12        -2.9937    3.1708    6.0844 C.ar      1 <0>        -0.0411
     17 C13        -3.3653    4.4719    5.7370 C.ar      1 <0>        -0.0548
     18 C14        -4.3263    5.1314    6.4738 C.ar      1 <0>        -0.1488
     19 C15        -4.9149    4.5102    7.5641 C.ar      1 <0>         0.1090
     20 C16        -4.5461    3.2215    7.9170 C.ar      1 <0>        -0.1510
     21 C17        -3.5905    2.5499    7.1843 C.ar      1 <0>        -0.0770
     22 F1         -5.8515    5.1635    8.2860 F         1 <0>        -0.1358
     23 C18        -2.8441    3.0522    2.9680 C.ar      1 <0>        -0.0077
     24 C19        -2.3961    4.0713    2.1266 C.ar      1 <0>        -0.0928
     25 C20        -3.2703    4.6620    1.2376 C.ar      1 <0>        -0.1190
     26 C21        -4.5916    4.2546    1.1880 C.ar      1 <0>        -0.1180
     27 C22        -5.0434    3.2487    2.0236 C.ar      1 <0>        -0.1194
     28 C23        -4.1779    2.6456    2.9127 C.ar      1 <0>        -0.1001
     29 O2          2.6244   -0.7201    3.7460 O.3       1 <0>        -0.3025
     30 C24         3.1114   -1.0525    5.0477 C.3       1 <0>         0.0398
     31 H2         -1.7991    1.2288   -3.7221 H         1 <0>         0.0561
     32 H3         -0.7913    2.6960   -3.7239 H         1 <0>         0.0561
     33 H4         -0.2664    1.2545   -4.6266 H         1 <0>         0.0576
     34 H5          0.9860    1.4765   -2.4981 H         1 <0>         0.0654
     35 H6         -0.0218    0.0093   -2.4963 H         1 <0>         0.0653
     36 H7         -1.7753    1.2154   -1.2238 H         1 <0>         0.0749
     37 H8         -0.7675    2.6825   -1.2255 H         1 <0>         0.0752
     38 H9          0.0021   -0.0041    0.0020 H         1 <0>         0.0678
     39 H10         1.0099    1.4631    0.0003 H         1 <0>         0.0682
     40 H11         1.4764    0.0639    1.5352 H         1 <0>         0.1495
     41 H12        -2.9041    4.9585    4.8903 H         1 <0>         0.1384
     42 H13        -4.6179    6.1355    6.2034 H         1 <0>         0.1415
     43 H14        -5.0080    2.7427    8.7678 H         1 <0>         0.1404
     44 H15        -3.3036    1.5460    7.4604 H         1 <0>         0.1335
     45 H16        -1.3661    4.3935    2.1677 H         1 <0>         0.1184
     46 H17        -2.9236    5.4475    0.5824 H         1 <0>         0.1208
     47 H18        -5.2731    4.7236    0.4938 H         1 <0>         0.1195
     48 H19        -6.0760    2.9352    1.9801 H         1 <0>         0.1207
     49 H20        -4.5317    1.8603    3.5642 H         1 <0>         0.1180
     50 H21         2.3458   -1.6057    5.5917 H         1 <0>         0.0600
     51 H22         4.0067   -1.6672    4.9546 H         1 <0>         0.0977
     52 H23         3.3532   -0.1382    5.5896 H         1 <0>         0.0601
@<TRIPOS>BOND
     1    1    2 1
     2    1   31 1
     3    1   32 1
     4    1   33 1
     5    2    3 1
     6    2   34 1
     7    2   35 1
     8    3    4 1
     9    3   36 1
    10    3   37 1
    11    4    5 1
    12    4   38 1
    13    4   39 1
    14    5    6 1
    15    6   11 ar
    16    6    7 ar
    17    7    8 ar
    18    7   40 1
    19    8    9 ar
    20    8   29 1
    21    9   10 ar
    22   10   14 1
    23   10   11 ar
    24   11   12 1
    25   12   13 2
    26   12   23 1
    27   13   14 1
    28   13   16 1
    29   14   15 1
    30   16   21 ar
    31   16   17 ar
    32   17   18 ar
    33   17   41 1
    34   18   19 ar
    35   18   42 1
    36   19   20 ar
    37   19   22 1
    38   20   21 ar
    39   20   43 1
    40   21   44 1
    41   23   28 ar
    42   23   24 ar
    43   24   25 ar
    44   24   45 1
    45   25   26 ar
    46   25   46 1
    47   26   27 ar
    48   26   47 1
    49   27   28 ar
    50   27   48 1
    51   28   49 1
    52   29   30 1
    53   30   50 1
    54   30   51 1
    55   30   52 1
@<TRIPOS>MOLECULE
ZINC03815683
   53    56     0     0     0
SMALL
USER_CHARGES

@<TRIPOS>ATOM
      1 C1         -0.7766    1.6061   -3.7298 C.3       1 <0>        -0.1554
      2 C2         -0.0366    1.0992   -2.4903 C.3       1 <0>        -0.1214
      3 C3         -0.7527    1.5927   -1.2315 C.3       1 <0>        -0.1208
      4 C4         -0.0127    1.0858    0.0080 C.3       1 <0>         0.0381
      5 O1         -0.6816    1.5467    1.1837 O.3       1 <0>        -0.2549
      6 C5         -0.1496    1.1827    2.3778 C.ar      1 <0>         0.3475
      7 C6          0.9925    0.3982    2.4410 C.ar      1 <0>        -0.2919
      8 C7          1.5070    0.0469    3.6837 C.ar      1 <0>         0.4570
      9 C8         -0.1634    1.1962    4.8035 C.ar      1 <0>         0.3248
     10 C9         -0.7354    1.5936    3.5845 C.ar      1 <0>        -0.1538
     11 C10        -1.9102    2.4096    3.9192 C.2       1 <0>        -0.0274
     12 C11        -1.9701    2.4572    5.2959 C.2       1 <0>         0.1402
     13 N1         -0.9286    1.7241    5.8170 N.pl3     1 <0>        -0.5433
     14 H1         -0.7534    1.6051    6.7636 H         1 <0>         0.4371
     15 C12        -2.9937    3.1708    6.0844 C.ar      1 <0>        -0.0716
     16 C13        -3.3653    4.4719    5.7370 C.ar      1 <0>        -0.0436
     17 C14        -4.3263    5.1314    6.4738 C.ar      1 <0>        -0.1484
     18 C15        -4.9149    4.5102    7.5641 C.ar      1 <0>         0.1300
     19 C16        -4.5461    3.2215    7.9170 C.ar      1 <0>        -0.1511
     20 C17        -3.5905    2.5499    7.1843 C.ar      1 <0>        -0.0693
     21 F1         -5.8515    5.1635    8.2860 F         1 <0>        -0.1267
     22 C18        -2.8441    3.0522    2.9680 C.ar      1 <0>        -0.0421
     23 C19        -2.3961    4.0713    2.1266 C.ar      1 <0>        -0.0894
     24 C20        -3.2703    4.6620    1.2376 C.ar      1 <0>        -0.1163
     25 C21        -4.5916    4.2546    1.1880 C.ar      1 <0>        -0.1008
     26 C22        -5.0434    3.2487    2.0236 C.ar      1 <0>        -0.1158
     27 C23        -4.1779    2.6456    2.9127 C.ar      1 <0>        -0.0896
     28 O2          2.6244   -0.7201    3.7460 O.3       1 <0>        -0.2721
     29 C24         3.1114   -1.0525    5.0477 C.3       1 <0>        -0.0083
     30 H2         -1.7991    1.2288   -3.7221 H         1 <0>         0.0583
     31 H3         -0.7913    2.6960   -3.7239 H         1 <0>         0.0584
     32 H4         -0.2664    1.2545   -4.6266 H         1 <0>         0.0624
     33 H5          0.9860    1.4765   -2.4981 H         1 <0>         0.0681
     34 H6         -0.0218    0.0093   -2.4963 H         1 <0>         0.0680
     35 H7         -1.7753    1.2154   -1.2238 H         1 <0>         0.0817
     36 H8         -0.7675    2.6825   -1.2255 H         1 <0>         0.0820
     37 H9          0.0021   -0.0041    0.0020 H         1 <0>         0.0857
     38 H10         1.0099    1.4631    0.0003 H         1 <0>         0.0861
     39 H11         1.4764    0.0639    1.5352 H         1 <0>         0.1963
     40 H12        -2.9041    4.9585    4.8903 H         1 <0>         0.1416
     41 H13        -4.6179    6.1355    6.2034 H         1 <0>         0.1484
     42 H14        -5.0080    2.7427    8.7678 H         1 <0>         0.1466
     43 H15        -3.3036    1.5460    7.4604 H         1 <0>         0.1336
     44 H16        -1.3661    4.3935    2.1677 H         1 <0>         0.1209
     45 H17        -2.9236    5.4475    0.5824 H         1 <0>         0.1280
     46 H18        -5.2731    4.7236    0.4938 H         1 <0>         0.1274
     47 H19        -6.0760    2.9352    1.9801 H         1 <0>         0.1283
     48 H20        -4.5317    1.8603    3.5642 H         1 <0>         0.1221
     49 H21         2.3458   -1.6057    5.5917 H         1 <0>         0.0793
     50 H22         4.0067   -1.6672    4.9546 H         1 <0>         0.1444
     51 H23         3.3532   -0.1382    5.5896 H         1 <0>         0.0795
     52 N2          0.9650    0.4211    4.8756 N.ar      1 <0>        -0.5681
     53 H24         1.3764    0.1399    5.7734 H         1 <0>         0.4601
@<TRIPOS>BOND
     1    1    2 1
     2    1   30 1
     3    1   31 1
     4    1   32 1
     5    2    3 1
     6    2   33 1
     7    2   34 1
     8    3    4 1
     9    3   35 1
    10    3   36 1
    11    4    5 1
    12    4   37 1
    13    4   38 1
    14    5    6 1
    15    6   10 ar
    16    6    7 ar
    17    7    8 ar
    18    7   39 1
    19    8   28 1
    20    8   52 ar
    21    9   13 1
    22    9   10 ar
    23    9   52 ar
    24   10   11 1
    25   11   12 2
    26   11   22 1
    27   12   13 1
    28   12   15 1
    29   13   14 1
    30   15   20 ar
    31   15   16 ar
    32   16   17 ar
    33   16   40 1
    34   17   18 ar
    35   17   41 1
    36   18   19 ar
    37   18   21 1
    38   19   20 ar
    39   19   42 1
    40   20   43 1
    41   22   27 ar
    42   22   23 ar
    43   23   24 ar
    44   23   44 1
    45   24   25 ar
    46   24   45 1
    47   25   26 ar
    48   25   46 1
    49   26   27 ar
    50   26   47 1
    51   27   48 1
    52   28   29 1
    53   29   49 1
    54   29   50 1
    55   29   51 1
    56   52   53 1
@<TRIPOS>MOLECULE
ZINC03815685
   41    44     0     0     0
SMALL
USER_CHARGES

@<TRIPOS>ATOM
      1 C1         -4.7758   -0.4909   -0.1135 C.3       1 <0>         0.0234
      2 O1         -4.8278    0.9371   -0.1161 O.3       1 <0>        -0.2941
      3 C2         -3.6494    1.5968    0.0169 C.ar      1 <0>         0.2578
      4 C3         -2.4557    0.9046    0.1485 C.ar      1 <0>        -0.3521
      5 C4         -1.2676    1.6180    0.2822 C.ar      1 <0>         0.4784
      6 N1         -1.2542    2.9402    0.2913 N.ar      1 <0>        -0.5880
      7 C5         -2.3697    3.6531    0.1633 C.ar      1 <0>         0.3761
      8 C6         -3.6042    2.9995    0.0246 C.ar      1 <0>        -0.2128
      9 C7         -4.6246    4.0504   -0.0866 C.2       1 <0>        -0.0661
     10 C8         -3.9537    5.2525   -0.0093 C.2       1 <0>         0.1053
     11 N2         -2.6076    5.0074    0.1399 N.pl3     1 <0>        -0.5668
     12 H1         -1.9247    5.6918    0.2176 H         1 <0>         0.4218
     13 C9         -4.5788    6.5879   -0.0755 C.ar      1 <0>        -0.0379
     14 C10        -5.7187    6.8669    0.6824 C.ar      1 <0>        -0.0563
     15 C11        -6.2957    8.1177    0.6198 C.ar      1 <0>        -0.1492
     16 C12        -5.7529    9.0940   -0.2007 C.ar      1 <0>         0.1071
     17 C13        -4.6249    8.8216   -0.9586 C.ar      1 <0>        -0.1512
     18 C14        -4.0362    7.5760   -0.9006 C.ar      1 <0>        -0.0776
     19 F1         -6.3259   10.3159   -0.2623 F         1 <0>        -0.1366
     20 C15        -6.0828    3.8573   -0.2492 C.ar      1 <0>        -0.0057
     21 C16        -6.8325    3.2835    0.7784 C.ar      1 <0>        -0.0944
     22 C17        -8.1924    3.1110    0.6226 C.ar      1 <0>        -0.1201
     23 C18        -8.8111    3.4951   -0.5538 C.ar      1 <0>        -0.1197
     24 C19        -8.0726    4.0598   -1.5785 C.ar      1 <0>        -0.1198
     25 C20        -6.7129    4.2430   -1.4330 C.ar      1 <0>        -0.1009
     26 N3         -0.0699    0.9251    0.4148 N.pl3     1 <0>        -0.8457
     27 H2         -4.1535   -0.8334   -0.9403 H         1 <0>         0.0589
     28 H3         -4.3509   -0.8373    0.8287 H         1 <0>         0.0592
     29 H4         -5.7832   -0.8914   -0.2268 H         1 <0>         0.1035
     30 H5         -2.4474   -0.1753    0.1478 H         1 <0>         0.1391
     31 H6         -6.1451    6.1055    1.3187 H         1 <0>         0.1378
     32 H7         -7.1746    8.3358    1.2084 H         1 <0>         0.1407
     33 H8         -4.2064    9.5863   -1.5961 H         1 <0>         0.1397
     34 H9         -3.1577    7.3647   -1.4922 H         1 <0>         0.1336
     35 H10        -6.3498    2.9788    1.6952 H         1 <0>         0.1185
     36 H11        -8.7744    2.6708    1.4187 H         1 <0>         0.1206
     37 H12        -9.8752    3.3538   -0.6727 H         1 <0>         0.1192
     38 H13        -8.5614    4.3575   -2.4944 H         1 <0>         0.1205
     39 H14        -6.1376    4.6842   -2.2334 H         1 <0>         0.1181
     40 H15        -0.0681   -0.0449    0.4135 H         1 <0>         0.4101
     41 H16         0.7644    1.4115    0.5046 H         1 <0>         0.4053
@<TRIPOS>BOND
     1    1    2 1
     2    1   27 1
     3    1   28 1
     4    1   29 1
     5    2    3 1
     6    3    8 ar
     7    3    4 ar
     8    4    5 ar
     9    4   30 1
    10    5    6 ar
    11    5   26 1
    12    6    7 ar
    13    7   11 1
    14    7    8 ar
    15    8    9 1
    16    9   10 2
    17    9   20 1
    18   10   11 1
    19   10   13 1
    20   11   12 1
    21   13   18 ar
    22   13   14 ar
    23   14   15 ar
    24   14   31 1
    25   15   16 ar
    26   15   32 1
    27   16   17 ar
    28   16   19 1
    29   17   18 ar
    30   17   33 1
    31   18   34 1
    32   20   25 ar
    33   20   21 ar
    34   21   22 ar
    35   21   35 1
    36   22   23 ar
    37   22   36 1
    38   23   24 ar
    39   23   37 1
    40   24   25 ar
    41   24   38 1
    42   25   39 1
    43   26   40 1
    44   26   41 1
@<TRIPOS>MOLECULE
ZINC03815685
   42    45     0     0     0
SMALL
USER_CHARGES

@<TRIPOS>ATOM
      1 C1         -4.7758   -0.4909   -0.1135 C.3       1 <0>         0.0072
      2 O1         -4.8278    0.9371   -0.1161 O.3       1 <0>        -0.2620
      3 C2         -3.6494    1.5968    0.0169 C.ar      1 <0>         0.3438
      4 C3         -2.4557    0.9046    0.1485 C.ar      1 <0>        -0.3377
      5 C4         -1.2676    1.6180    0.2822 C.ar      1 <0>         0.5337
      6 C5         -2.3697    3.6531    0.1633 C.ar      1 <0>         0.3287
      7 C6         -3.6042    2.9995    0.0246 C.ar      1 <0>        -0.1628
      8 C7         -4.6246    4.0504   -0.0866 C.2       1 <0>        -0.0274
      9 C8         -3.9537    5.2525   -0.0093 C.2       1 <0>         0.1325
     10 N1         -2.6076    5.0074    0.1399 N.pl3     1 <0>        -0.5442
     11 H1         -1.9247    5.6918    0.2176 H         1 <0>         0.4358
     12 C9         -4.5788    6.5879   -0.0755 C.ar      1 <0>        -0.0690
     13 C10        -5.7187    6.8669    0.6824 C.ar      1 <0>        -0.0450
     14 C11        -6.2957    8.1177    0.6198 C.ar      1 <0>        -0.1488
     15 C12        -5.7529    9.0940   -0.2007 C.ar      1 <0>         0.1281
     16 C13        -4.6249    8.8216   -0.9586 C.ar      1 <0>        -0.1515
     17 C14        -4.0362    7.5760   -0.9006 C.ar      1 <0>        -0.0697
     18 F1         -6.3259   10.3159   -0.2623 F         1 <0>        -0.1275
     19 C15        -6.0828    3.8573   -0.2492 C.ar      1 <0>        -0.0398
     20 C16        -6.8325    3.2835    0.7784 C.ar      1 <0>        -0.0908
     21 C17        -8.1924    3.1110    0.6226 C.ar      1 <0>        -0.1171
     22 C18        -8.8111    3.4951   -0.5538 C.ar      1 <0>        -0.1026
     23 C19        -8.0726    4.0598   -1.5785 C.ar      1 <0>        -0.1162
     24 C20        -6.7129    4.2430   -1.4330 C.ar      1 <0>        -0.0908
     25 N2         -0.0699    0.9251    0.4148 N.pl3     1 <0>        -0.8193
     26 H2         -4.1535   -0.8334   -0.9403 H         1 <0>         0.0764
     27 H3         -4.3509   -0.8373    0.8287 H         1 <0>         0.0766
     28 H4         -5.7832   -0.8914   -0.2268 H         1 <0>         0.1248
     29 H5         -2.4474   -0.1753    0.1478 H         1 <0>         0.1856
     30 H6         -6.1451    6.1055    1.3187 H         1 <0>         0.1410
     31 H7         -7.1746    8.3358    1.2084 H         1 <0>         0.1476
     32 H8         -4.2064    9.5863   -1.5961 H         1 <0>         0.1459
     33 H9         -3.1577    7.3647   -1.4922 H         1 <0>         0.1337
     34 H10        -6.3498    2.9788    1.6952 H         1 <0>         0.1210
     35 H11        -8.7744    2.6708    1.4187 H         1 <0>         0.1277
     36 H12        -9.8752    3.3538   -0.6727 H         1 <0>         0.1270
     37 H13        -8.5614    4.3575   -2.4944 H         1 <0>         0.1279
     38 H14        -6.1376    4.6842   -2.2334 H         1 <0>         0.1220
     39 H15        -0.0681   -0.0449    0.4135 H         1 <0>         0.4393
     40 H16         0.7644    1.4115    0.5046 H         1 <0>         0.4213
     41 N3         -1.1840    2.9784    0.2998 N.ar      1 <0>        -0.5650
     42 H17        -0.2880    3.4679    0.4087 H         1 <0>         0.4596
@<TRIPOS>BOND
     1    1    2 1
     2    1   26 1
     3    1   27 1
     4    1   28 1
     5    2    3 1
     6    3    7 ar
     7    3    4 ar
     8    4    5 ar
     9    4   29 1
    10    5   25 1
    11    5   41 ar
    12    6   10 1
    13    6    7 ar
    14    6   41 ar
    15    7    8 1
    16    8    9 2
    17    8   19 1
    18    9   10 1
    19    9   12 1
    20   10   11 1
    21   12   17 ar
    22   12   13 ar
    23   13   14 ar
    24   13   30 1
    25   14   15 ar
    26   14   31 1
    27   15   16 ar
    28   15   18 1
    29   16   17 ar
    30   16   32 1
    31   17   33 1
    32   19   24 ar
    33   19   20 ar
    34   20   21 ar
    35   20   34 1
    36   21   22 ar
    37   21   35 1
    38   22   23 ar
    39   22   36 1
    40   23   24 ar
    41   23   37 1
    42   24   38 1
    43   25   39 1
    44   25   40 1
    45   41   42 1
@<TRIPOS>MOLECULE
ZINC03815688
   56    60     0     0     0
SMALL
USER_CHARGES

@<TRIPOS>ATOM
      1 C1        -10.0843   -4.1506   -0.7051 C.ar      1 <0>        -0.1223
      2 C2         -9.3123   -3.8959   -1.8231 C.ar      1 <0>        -0.1176
      3 C3         -8.0347   -3.3878   -1.6798 C.ar      1 <0>        -0.1160
      4 C4         -7.5290   -3.1348   -0.4184 C.ar      1 <0>        -0.0839
      5 C5         -8.2989   -3.3949    0.6999 C.ar      1 <0>        -0.1159
      6 C6         -9.5784   -3.8980    0.5563 C.ar      1 <0>        -0.1176
      7 C7         -6.1360   -2.5814   -0.2622 C.3       1 <0>        -0.0762
      8 C8         -6.1912   -1.0524   -0.2672 C.3       1 <0>        -0.1115
      9 C9         -4.7770   -0.4905   -0.1085 C.3       1 <0>         0.0563
     10 O1         -4.8286    0.9376   -0.1132 O.3       1 <0>        -0.2937
     11 C10        -3.6500    1.5971    0.0192 C.ar      1 <0>         0.2604
     12 C11        -2.4565    0.9047    0.1522 C.ar      1 <0>        -0.3502
     13 C12        -1.2683    1.6179    0.2852 C.ar      1 <0>         0.4798
     14 N1         -1.2546    2.9401    0.2927 N.ar      1 <0>        -0.5870
     15 C13        -2.3699    3.6531    0.1630 C.ar      1 <0>         0.3771
     16 C14        -3.6043    2.9995    0.0249 C.ar      1 <0>        -0.2094
     17 C15        -4.6243    4.0512   -0.0886 C.2       1 <0>        -0.0786
     18 C16        -3.9514    5.2537   -0.0129 C.2       1 <0>         0.1170
     19 N2         -2.6074    5.0077    0.1371 N.pl3     1 <0>        -0.5648
     20 H1         -1.9240    5.6918    0.2140 H         1 <0>         0.4231
     21 C17        -4.5750    6.5897   -0.0816 C.ar      1 <0>        -0.0425
     22 C18        -5.7150    6.8711    0.6753 C.ar      1 <0>        -0.0579
     23 C19        -6.2903    8.1225    0.6107 C.ar      1 <0>        -0.1487
     24 C20        -5.7463    9.0968   -0.2114 C.ar      1 <0>         0.1099
     25 C21        -4.6181    8.8219   -0.9683 C.ar      1 <0>        -0.1502
     26 C22        -4.0309    7.5758   -0.9080 C.ar      1 <0>        -0.0754
     27 F1         -6.3176   10.3194   -0.2749 F         1 <0>        -0.1353
     28 C23        -6.0811    3.8593   -0.2514 C.ar      1 <0>         0.0442
     29 C24        -6.7306    4.2455   -1.4305 C.ar      1 <0>        -0.1566
     30 C25        -8.0898    4.0442   -1.5413 C.ar      1 <0>         0.0996
     31 N3         -8.7781    3.5053   -0.5522 N.ar      1 <0>        -0.4859
     32 C26        -8.2063    3.1317    0.5773 C.ar      1 <0>         0.0996
     33 C27        -6.8511    3.2917    0.7715 C.ar      1 <0>        -0.1495
     34 N4         -0.0707    0.9249    0.4186 N.pl3     1 <0>        -0.8448
     35 H2        -11.0826   -4.5472   -0.8171 H         1 <0>         0.1217
     36 H3         -9.7075   -4.0935   -2.8086 H         1 <0>         0.1221
     37 H4         -7.4316   -3.1888   -2.5533 H         1 <0>         0.1208
     38 H5         -7.9021   -3.2014    1.6855 H         1 <0>         0.1212
     39 H6        -10.1814   -4.0974    1.4299 H         1 <0>         0.1223
     40 H7         -5.5137   -2.9252   -1.0883 H         1 <0>         0.0758
     41 H8         -5.7116   -2.9265    0.6806 H         1 <0>         0.0762
     42 H9         -6.8136   -0.7086    0.5590 H         1 <0>         0.0772
     43 H10        -6.6157   -0.7072   -1.2099 H         1 <0>         0.0760
     44 H11        -4.1547   -0.8343   -0.9347 H         1 <0>         0.0667
     45 H12        -4.3526   -0.8356    0.8342 H         1 <0>         0.0674
     46 H13        -2.4485   -0.1753    0.1530 H         1 <0>         0.1395
     47 H14        -6.1423    6.1113    1.3129 H         1 <0>         0.1360
     48 H15        -7.1690    8.3427    1.1988 H         1 <0>         0.1413
     49 H16        -4.1984    9.5851   -1.6069 H         1 <0>         0.1410
     50 H17        -3.1524    7.3625   -1.4988 H         1 <0>         0.1347
     51 H18        -6.1745    4.6911   -2.2420 H         1 <0>         0.1307
     52 H19        -8.5991    4.3352   -2.4480 H         1 <0>         0.1535
     53 H20        -8.8086    2.6949    1.3602 H         1 <0>         0.1531
     54 H21        -6.3899    2.9837    1.6983 H         1 <0>         0.1309
     55 H22        -0.0690   -0.0451    0.4184 H         1 <0>         0.4106
     56 H23         0.7638    1.4114    0.5080 H         1 <0>         0.4058
@<TRIPOS>BOND
     1    1    6 ar
     2    1    2 ar
     3    1   35 1
     4    2    3 ar
     5    2   36 1
     6    3    4 ar
     7    3   37 1
     8    4    5 ar
     9    4    7 1
    10    5    6 ar
    11    5   38 1
    12    6   39 1
    13    7    8 1
    14    7   40 1
    15    7   41 1
    16    8    9 1
    17    8   42 1
    18    8   43 1
    19    9   10 1
    20    9   44 1
    21    9   45 1
    22   10   11 1
    23   11   16 ar
    24   11   12 ar
    25   12   13 ar
    26   12   46 1
    27   13   14 ar
    28   13   34 1
    29   14   15 ar
    30   15   19 1
    31   15   16 ar
    32   16   17 1
    33   17   18 2
    34   17   28 1
    35   18   19 1
    36   18   21 1
    37   19   20 1
    38   21   26 ar
    39   21   22 ar
    40   22   23 ar
    41   22   47 1
    42   23   24 ar
    43   23   48 1
    44   24   25 ar
    45   24   27 1
    46   25   26 ar
    47   25   49 1
    48   26   50 1
    49   28   33 ar
    50   28   29 ar
    51   29   30 ar
    52   29   51 1
    53   30   31 ar
    54   30   52 1
    55   31   32 ar
    56   32   33 ar
    57   32   53 1
    58   33   54 1
    59   34   55 1
    60   34   56 1
@<TRIPOS>MOLECULE
ZINC03815688
   57    61     0     0     0
SMALL
USER_CHARGES

@<TRIPOS>ATOM
      1 C1        -10.0843   -4.1506   -0.7051 C.ar      1 <0>        -0.1168
      2 C2         -9.3123   -3.8959   -1.8231 C.ar      1 <0>        -0.1162
      3 C3         -8.0347   -3.3878   -1.6798 C.ar      1 <0>        -0.1153
      4 C4         -7.5290   -3.1348   -0.4184 C.ar      1 <0>        -0.0927
      5 C5         -8.2989   -3.3949    0.6999 C.ar      1 <0>        -0.1152
      6 C6         -9.5784   -3.8980    0.5563 C.ar      1 <0>        -0.1163
      7 C7         -6.1360   -2.5814   -0.2622 C.3       1 <0>        -0.0737
      8 C8         -6.1912   -1.0524   -0.2672 C.3       1 <0>        -0.1155
      9 C9         -4.7770   -0.4905   -0.1085 C.3       1 <0>         0.0427
     10 O1         -4.8286    0.9376   -0.1132 O.3       1 <0>        -0.2630
     11 C10        -3.6500    1.5971    0.0192 C.ar      1 <0>         0.3459
     12 C11        -2.4565    0.9047    0.1522 C.ar      1 <0>        -0.3365
     13 C12        -1.2683    1.6179    0.2852 C.ar      1 <0>         0.5348
     14 C13        -2.3699    3.6531    0.1630 C.ar      1 <0>         0.3307
     15 C14        -3.6043    2.9995    0.0249 C.ar      1 <0>        -0.1588
     16 C15        -4.6243    4.0512   -0.0886 C.2       1 <0>        -0.0407
     17 C16        -3.9514    5.2537   -0.0129 C.2       1 <0>         0.1446
     18 N1         -2.6074    5.0077    0.1371 N.pl3     1 <0>        -0.5432
     19 H1         -1.9240    5.6918    0.2140 H         1 <0>         0.4371
     20 C17        -4.5750    6.5897   -0.0816 C.ar      1 <0>        -0.0736
     21 C18        -5.7150    6.8711    0.6753 C.ar      1 <0>        -0.0468
     22 C19        -6.2903    8.1225    0.6107 C.ar      1 <0>        -0.1483
     23 C20        -5.7463    9.0968   -0.2114 C.ar      1 <0>         0.1309
     24 C21        -4.6181    8.8219   -0.9683 C.ar      1 <0>        -0.1505
     25 C22        -4.0309    7.5758   -0.9080 C.ar      1 <0>        -0.0674
     26 F1         -6.3176   10.3194   -0.2749 F         1 <0>        -0.1261
     27 C23        -6.0811    3.8593   -0.2514 C.ar      1 <0>         0.0126
     28 C24        -6.7306    4.2455   -1.4305 C.ar      1 <0>        -0.1476
     29 C25        -8.0898    4.0442   -1.5413 C.ar      1 <0>         0.1078
     30 N2         -8.7781    3.5053   -0.5522 N.ar      1 <0>        -0.4725
     31 C26        -8.2063    3.1317    0.5773 C.ar      1 <0>         0.1070
     32 C27        -6.8511    3.2917    0.7715 C.ar      1 <0>        -0.1472
     33 N3         -0.0707    0.9249    0.4186 N.pl3     1 <0>        -0.8179
     34 H2        -11.0826   -4.5472   -0.8171 H         1 <0>         0.1245
     35 H3         -9.7075   -4.0935   -2.8086 H         1 <0>         0.1243
     36 H4         -7.4316   -3.1888   -2.5533 H         1 <0>         0.1206
     37 H5         -7.9021   -3.2014    1.6855 H         1 <0>         0.1210
     38 H6        -10.1814   -4.0974    1.4299 H         1 <0>         0.1244
     39 H7         -5.5137   -2.9252   -1.0883 H         1 <0>         0.0775
     40 H8         -5.7116   -2.9265    0.6806 H         1 <0>         0.0779
     41 H9         -6.8136   -0.7086    0.5590 H         1 <0>         0.0836
     42 H10        -6.6157   -0.7072   -1.2099 H         1 <0>         0.0824
     43 H11        -4.1547   -0.8343   -0.9347 H         1 <0>         0.0837
     44 H12        -4.3526   -0.8356    0.8342 H         1 <0>         0.0845
     45 H13        -2.4485   -0.1753    0.1530 H         1 <0>         0.1859
     46 H14        -6.1423    6.1113    1.3129 H         1 <0>         0.1392
     47 H15        -7.1690    8.3427    1.1988 H         1 <0>         0.1482
     48 H16        -4.1984    9.5851   -1.6069 H         1 <0>         0.1472
     49 H17        -3.1524    7.3625   -1.4988 H         1 <0>         0.1349
     50 H18        -6.1745    4.6911   -2.2420 H         1 <0>         0.1355
     51 H19        -8.5991    4.3352   -2.4480 H         1 <0>         0.1606
     52 H20        -8.8086    2.6949    1.3602 H         1 <0>         0.1599
     53 H21        -6.3899    2.9837    1.6983 H         1 <0>         0.1344
     54 H22        -0.0690   -0.0451    0.4184 H         1 <0>         0.4398
     55 H23         0.7638    1.4114    0.5080 H         1 <0>         0.4218
     56 N4         -1.1844    2.9783    0.3012 N.ar      1 <0>        -0.5647
     57 H24        -0.2884    3.4677    0.4101 H         1 <0>         0.4604
@<TRIPOS>BOND
     1    1    6 ar
     2    1    2 ar
     3    1   34 1
     4    2    3 ar
     5    2   35 1
     6    3    4 ar
     7    3   36 1
     8    4    5 ar
     9    4    7 1
    10    5    6 ar
    11    5   37 1
    12    6   38 1
    13    7    8 1
    14    7   39 1
    15    7   40 1
    16    8    9 1
    17    8   41 1
    18    8   42 1
    19    9   10 1
    20    9   43 1
    21    9   44 1
    22   10   11 1
    23   11   15 ar
    24   11   12 ar
    25   12   13 ar
    26   12   45 1
    27   13   33 1
    28   13   56 ar
    29   14   18 1
    30   14   15 ar
    31   14   56 ar
    32   15   16 1
    33   16   17 2
    34   16   27 1
    35   17   18 1
    36   17   20 1
    37   18   19 1
    38   20   25 ar
    39   20   21 ar
    40   21   22 ar
    41   21   46 1
    42   22   23 ar
    43   22   47 1
    44   23   24 ar
    45   23   26 1
    46   24   25 ar
    47   24   48 1
    48   25   49 1
    49   27   32 ar
    50   27   28 ar
    51   28   29 ar
    52   28   50 1
    53   29   30 ar
    54   29   51 1
    55   30   31 ar
    56   31   32 ar
    57   31   52 1
    58   32   53 1
    59   33   54 1
    60   33   55 1
    61   56   57 1
@<TRIPOS>MOLECULE
ZINC03815689
   44    47     0     0     0
SMALL
USER_CHARGES

@<TRIPOS>ATOM
      1 C1         -1.0953   -5.3814   -3.1237 C.ar      1 <0>        -0.0795
      2 C2         -1.8275   -6.5031   -3.4533 C.ar      1 <0>        -0.1486
      3 C3         -2.0098   -7.5128   -2.5218 C.ar      1 <0>         0.1182
      4 C4         -1.4540   -7.4034   -1.2572 C.ar      1 <0>        -0.1460
      5 C5         -0.7157   -6.2880   -0.9199 C.ar      1 <0>        -0.0571
      6 C6         -0.5291   -5.2695   -1.8541 C.ar      1 <0>        -0.0486
      7 C7          0.2630   -4.0695   -1.4969 C.2       1 <0>         0.0422
      8 C8          1.4534   -4.0534   -0.7920 C.2       1 <0>         0.0648
      9 N1          1.8261   -2.7313   -0.6998 N.2       1 <0>        -0.4563
     10 H1         -0.8636   -2.4978   -2.2861 H         1 <0>         0.4300
     11 C9          0.8774   -2.0010   -1.3233 C.2       1 <0>         0.1769
     12 N2         -0.0480   -2.7934   -1.7887 N.pl3     1 <0>        -0.5094
     13 C10         0.8862   -0.5003   -1.4606 C.3       1 <0>        -0.0077
     14 C11         0.2751    0.1318   -0.2070 C.3       1 <0>        -0.1430
     15 C12         0.3423    1.6561   -0.3256 C.3       1 <0>         0.0000
     16 C13         2.3356    1.5190   -1.6969 C.3       1 <0>        -0.0022
     17 C14         2.3279   -0.0094   -1.6192 C.3       1 <0>        -0.1346
     18 C15         2.1819   -5.2192   -0.2558 C.ar      1 <0>         0.0333
     19 C16         2.4004   -6.3571   -1.0441 C.ar      1 <0>        -0.1528
     20 C17         3.0904   -7.4212   -0.5040 C.ar      1 <0>         0.1060
     21 N3          3.5329   -7.3819    0.7389 N.ar      1 <0>        -0.4782
     22 C18         3.3447   -6.3326    1.5173 C.ar      1 <0>         0.1031
     23 C19         2.6698   -5.2220    1.0579 C.ar      1 <0>        -0.1488
     24 F1         -2.7321   -8.6070   -2.8476 F         1 <0>        -0.1298
     25 H2         -0.9575   -4.5930   -3.8488 H         1 <0>         0.1303
     26 H3         -2.2633   -6.5925   -4.4375 H         1 <0>         0.1437
     27 H4         -1.5995   -8.1926   -0.5345 H         1 <0>         0.1450
     28 H5         -0.2833   -6.2037    0.0661 H         1 <0>         0.1346
     29 H6          0.3043   -0.2101   -2.3354 H         1 <0>         0.1019
     30 H7          0.8338   -0.1897    0.6720 H         1 <0>         0.0999
     31 H8         -0.7649   -0.1802   -0.1114 H         1 <0>         0.1114
     32 H9         -0.2281    1.9781   -1.1969 H         1 <0>         0.1314
     33 H10        -0.0791    2.1092    0.5718 H         1 <0>         0.1364
     34 H11         3.3619    1.8725   -1.7955 H         1 <0>         0.1372
     35 H12         1.7559    1.8416   -2.5618 H         1 <0>         0.1305
     36 H13         2.9188   -0.3332   -0.7624 H         1 <0>         0.1061
     37 H14         2.7544   -0.4224   -2.5332 H         1 <0>         0.1148
     38 H15         2.0369   -6.3983   -2.0602 H         1 <0>         0.1338
     39 H16         3.2674   -8.3011   -1.1047 H         1 <0>         0.1604
     40 H17         3.7246   -6.3445    2.5282 H         1 <0>         0.1599
     41 H18         2.5195   -4.3670    1.7004 H         1 <0>         0.1352
     42 N4          1.7476    2.0826   -0.4668 N.4       1 <0>        -0.5177
     43 H19         2.2837    1.7549    0.3453 H         1 <0>         0.4352
     44 H20         1.7870    3.1076   -0.5119 H         1 <0>         0.4380
@<TRIPOS>BOND
     1    1    6 ar
     2    1    2 ar
     3    1   25 1
     4    2    3 ar
     5    2   26 1
     6    3    4 ar
     7    3   24 1
     8    4    5 ar
     9    4   27 1
    10    5    6 ar
    11    5   28 1
    12    6    7 1
    13    7   12 1
    14    7    8 2
    15    8    9 1
    16    8   18 1
    17    9   11 2
    18   10   12 1
    19   11   13 1
    20   11   12 1
    21   13   17 1
    22   13   14 1
    23   13   29 1
    24   14   15 1
    25   14   30 1
    26   14   31 1
    27   15   32 1
    28   15   33 1
    29   15   42 1
    30   16   17 1
    31   16   34 1
    32   16   35 1
    33   16   42 1
    34   17   36 1
    35   17   37 1
    36   18   23 ar
    37   18   19 ar
    38   19   20 ar
    39   19   38 1
    40   20   21 ar
    41   20   39 1
    42   21   22 ar
    43   22   23 ar
    44   22   40 1
    45   23   41 1
    46   42   43 1
    47   42   44 1
@<TRIPOS>MOLECULE
ZINC03815689
   45    48     0     0     0
SMALL
USER_CHARGES

@<TRIPOS>ATOM
      1 C1         -1.1067   -5.3830   -3.1081 C.ar      1 <0>        -0.0583
      2 C2         -1.8421   -6.5042   -3.4324 C.ar      1 <0>        -0.1476
      3 C3         -2.0242   -7.5105   -2.4973 C.ar      1 <0>         0.1531
      4 C4         -1.4651   -7.3983   -1.2344 C.ar      1 <0>        -0.1465
      5 C5         -0.7236   -6.2834   -0.9024 C.ar      1 <0>        -0.0406
      6 C6         -0.5372   -5.2682   -1.8403 C.ar      1 <0>        -0.1005
      7 C7          0.2583   -4.0688   -1.4888 C.2       1 <0>         0.1270
      8 C8          1.4534   -4.0534   -0.7920 C.2       1 <0>         0.1271
      9 N1          1.8261   -2.7313   -0.6998 N.pl3     1 <0>        -0.4980
     10 H1          2.6479   -2.3773   -0.2533 H         1 <0>         0.4699
     11 C9          0.8774   -2.0010   -1.3233 C.cat     1 <0>         0.3048
     12 C10         0.8862   -0.5003   -1.4606 C.3       1 <0>        -0.0455
     13 C11         0.2751    0.1318   -0.2070 C.3       1 <0>        -0.1493
     14 C12         0.3423    1.6561   -0.3256 C.3       1 <0>        -0.0011
     15 C13         2.3356    1.5190   -1.6969 C.3       1 <0>         0.0004
     16 C14         2.3279   -0.0094   -1.6192 C.3       1 <0>        -0.1530
     17 C15         2.1819   -5.2192   -0.2558 C.ar      1 <0>        -0.0318
     18 C16         2.4004   -6.3571   -1.0441 C.ar      1 <0>        -0.1277
     19 C17         3.0904   -7.4212   -0.5040 C.ar      1 <0>         0.1220
     20 N2          3.5329   -7.3819    0.7389 N.ar      1 <0>        -0.4515
     21 C18         3.3447   -6.3326    1.5173 C.ar      1 <0>         0.1193
     22 C19         2.6698   -5.2220    1.0579 C.ar      1 <0>        -0.1491
     23 F1         -2.7496   -8.6042   -2.8178 F         1 <0>        -0.1153
     24 H2         -0.9691   -4.5972   -3.8361 H         1 <0>         0.1376
     25 H3         -2.2804   -6.5958   -4.4152 H         1 <0>         0.1554
     26 H4         -1.6104   -8.1849   -0.5088 H         1 <0>         0.1557
     27 H5         -0.2886   -6.1968    0.0823 H         1 <0>         0.1396
     28 H6          0.3043   -0.2101   -2.3354 H         1 <0>         0.1454
     29 H7          0.8338   -0.1897    0.6720 H         1 <0>         0.1020
     30 H8         -0.7649   -0.1802   -0.1114 H         1 <0>         0.1278
     31 H9         -0.2281    1.9781   -1.1969 H         1 <0>         0.1419
     32 H10        -0.0791    2.1092    0.5718 H         1 <0>         0.1492
     33 H11         3.3619    1.8725   -1.7955 H         1 <0>         0.1496
     34 H12         1.7559    1.8416   -2.5618 H         1 <0>         0.1429
     35 H13         2.9188   -0.3332   -0.7624 H         1 <0>         0.0959
     36 H14         2.7544   -0.4224   -2.5332 H         1 <0>         0.1313
     37 H15         2.0369   -6.3983   -2.0602 H         1 <0>         0.1471
     38 H16         3.2674   -8.3011   -1.1047 H         1 <0>         0.1752
     39 H17         3.7246   -6.3445    2.5282 H         1 <0>         0.1731
     40 H18         2.5195   -4.3670    1.7004 H         1 <0>         0.1399
     41 N3          1.7476    2.0826   -0.4668 N.4       1 <0>        -0.5215
     42 H19         2.2837    1.7549    0.3453 H         1 <0>         0.4358
     43 H20         1.7870    3.1076   -0.5119 H         1 <0>         0.4503
     44 N4         -0.0513   -2.7927   -1.7842 N.pl3     1 <0>        -0.4642
     45 H21        -0.8893   -2.4892   -2.2938 H         1 <0>         0.4826
@<TRIPOS>BOND
     1    1    6 ar
     2    1    2 ar
     3    1   24 1
     4    2    3 ar
     5    2   25 1
     6    3    4 ar
     7    3   23 1
     8    4    5 ar
     9    4   26 1
    10    5    6 ar
    11    5   27 1
    12    6    7 1
    13    7    8 2
    14    7   44 1
    15    8    9 1
    16    8   17 1
    17    9   10 1
    18    9   11 1
    19   11   12 1
    20   11   44 2
    21   12   16 1
    22   12   13 1
    23   12   28 1
    24   13   14 1
    25   13   29 1
    26   13   30 1
    27   14   31 1
    28   14   32 1
    29   14   41 1
    30   15   16 1
    31   15   33 1
    32   15   34 1
    33   15   41 1
    34   16   35 1
    35   16   36 1
    36   17   22 ar
    37   17   18 ar
    38   18   19 ar
    39   18   37 1
    40   19   20 ar
    41   19   38 1
    42   20   21 ar
    43   21   22 ar
    44   21   39 1
    45   22   40 1
    46   41   42 1
    47   41   43 1
    48   44   45 1
@<TRIPOS>MOLECULE
ZINC03815689
   44    47     0     0     0
SMALL
USER_CHARGES

@<TRIPOS>ATOM
      1 C1         -1.0953   -5.3814   -3.1237 C.ar      1 <0>        -0.0795
      2 C2         -1.8275   -6.5031   -3.4533 C.ar      1 <0>        -0.1486
      3 C3         -2.0098   -7.5128   -2.5218 C.ar      1 <0>         0.1182
      4 C4         -1.4540   -7.4034   -1.2572 C.ar      1 <0>        -0.1460
      5 C5         -0.7157   -6.2880   -0.9199 C.ar      1 <0>        -0.0571
      6 C6         -0.5291   -5.2695   -1.8541 C.ar      1 <0>        -0.0486
      7 C7          0.2630   -4.0695   -1.4969 C.2       1 <0>         0.0422
      8 C8          1.4534   -4.0534   -0.7920 C.2       1 <0>         0.0648
      9 N1          1.8261   -2.7313   -0.6998 N.2       1 <0>        -0.4563
     10 H1         -0.8636   -2.4978   -2.2861 H         1 <0>         0.4300
     11 C9          0.8774   -2.0010   -1.3233 C.2       1 <0>         0.1769
     12 N2         -0.0480   -2.7934   -1.7887 N.pl3     1 <0>        -0.5094
     13 C10         0.8862   -0.5003   -1.4606 C.3       1 <0>        -0.0077
     14 C11         0.2751    0.1318   -0.2070 C.3       1 <0>        -0.1430
     15 C12         0.3423    1.6561   -0.3256 C.3       1 <0>         0.0000
     16 C13         2.3356    1.5190   -1.6969 C.3       1 <0>        -0.0022
     17 C14         2.3279   -0.0094   -1.6192 C.3       1 <0>        -0.1346
     18 C15         2.1819   -5.2192   -0.2558 C.ar      1 <0>         0.0333
     19 C16         2.4004   -6.3571   -1.0441 C.ar      1 <0>        -0.1528
     20 C17         3.0904   -7.4212   -0.5040 C.ar      1 <0>         0.1060
     21 N3          3.5329   -7.3819    0.7389 N.ar      1 <0>        -0.4782
     22 C18         3.3447   -6.3326    1.5173 C.ar      1 <0>         0.1031
     23 C19         2.6698   -5.2220    1.0579 C.ar      1 <0>        -0.1488
     24 F1         -2.7321   -8.6070   -2.8476 F         1 <0>        -0.1298
     25 H2         -0.9575   -4.5930   -3.8488 H         1 <0>         0.1303
     26 H3         -2.2633   -6.5925   -4.4375 H         1 <0>         0.1437
     27 H4         -1.5995   -8.1926   -0.5345 H         1 <0>         0.1450
     28 H5         -0.2833   -6.2037    0.0661 H         1 <0>         0.1346
     29 H6          0.3043   -0.2101   -2.3354 H         1 <0>         0.1019
     30 H7          0.8338   -0.1897    0.6720 H         1 <0>         0.0999
     31 H8         -0.7649   -0.1802   -0.1114 H         1 <0>         0.1114
     32 H9         -0.2281    1.9781   -1.1969 H         1 <0>         0.1314
     33 H10        -0.0791    2.1092    0.5718 H         1 <0>         0.1364
     34 H11         3.3619    1.8725   -1.7955 H         1 <0>         0.1372
     35 H12         1.7559    1.8416   -2.5618 H         1 <0>         0.1305
     36 H13         2.9188   -0.3332   -0.7624 H         1 <0>         0.1061
     37 H14         2.7544   -0.4224   -2.5332 H         1 <0>         0.1148
     38 H15         2.0369   -6.3983   -2.0602 H         1 <0>         0.1338
     39 H16         3.2674   -8.3011   -1.1047 H         1 <0>         0.1604
     40 H17         3.7246   -6.3445    2.5282 H         1 <0>         0.1599
     41 H18         2.5195   -4.3670    1.7004 H         1 <0>         0.1352
     42 N4          1.7476    2.0826   -0.4668 N.4       1 <0>        -0.5177
     43 H19         2.2837    1.7549    0.3453 H         1 <0>         0.4352
     44 H20         1.7870    3.1076   -0.5119 H         1 <0>         0.4380
@<TRIPOS>BOND
     1    1    6 ar
     2    1    2 ar
     3    1   25 1
     4    2    3 ar
     5    2   26 1
     6    3    4 ar
     7    3   24 1
     8    4    5 ar
     9    4   27 1
    10    5    6 ar
    11    5   28 1
    12    6    7 1
    13    7   12 1
    14    7    8 2
    15    8    9 1
    16    8   18 1
    17    9   11 2
    18   10   12 1
    19   11   13 1
    20   11   12 1
    21   13   17 1
    22   13   14 1
    23   13   29 1
    24   14   15 1
    25   14   30 1
    26   14   31 1
    27   15   32 1
    28   15   33 1
    29   15   42 1
    30   16   17 1
    31   16   34 1
    32   16   35 1
    33   16   42 1
    34   17   36 1
    35   17   37 1
    36   18   23 ar
    37   18   19 ar
    38   19   20 ar
    39   19   38 1
    40   20   21 ar
    41   20   39 1
    42   21   22 ar
    43   22   23 ar
    44   22   40 1
    45   23   41 1
    46   42   43 1
    47   42   44 1
@<TRIPOS>MOLECULE
ZINC03815690
   57    61     0     0     0
SMALL
USER_CHARGES

@<TRIPOS>ATOM
      1 C1        -10.0823   -4.1522   -0.7099 C.ar      1 <0>        -0.1229
      2 C2         -9.3111   -3.8963   -1.8282 C.ar      1 <0>        -0.1178
      3 C3         -8.0336   -3.3880   -1.6852 C.ar      1 <0>        -0.1159
      4 C4         -7.5271   -3.1360   -0.4239 C.ar      1 <0>        -0.0829
      5 C5         -8.2962   -3.3972    0.6946 C.ar      1 <0>        -0.1160
      6 C6         -9.5757   -3.9006    0.5514 C.ar      1 <0>        -0.1180
      7 C7         -6.1342   -2.5822   -0.2680 C.3       1 <0>        -0.0768
      8 C8         -6.1899   -1.0532   -0.2717 C.3       1 <0>        -0.1111
      9 C9         -4.7758   -0.4910   -0.1134 C.3       1 <0>         0.0561
     10 O1         -4.8278    0.9370   -0.1168 O.3       1 <0>        -0.2911
     11 C10        -3.6493    1.5968    0.0154 C.ar      1 <0>         0.2616
     12 C11        -2.4556    0.9046    0.1470 C.ar      1 <0>        -0.3530
     13 C12        -1.2675    1.6180    0.2809 C.ar      1 <0>         0.4788
     14 N1         -1.2542    2.9402    0.2904 N.ar      1 <0>        -0.5884
     15 C13        -2.3696    3.6531    0.1621 C.ar      1 <0>         0.3763
     16 C14        -3.6041    2.9994    0.0232 C.ar      1 <0>        -0.2128
     17 C15        -4.6246    4.0504   -0.0880 C.2       1 <0>        -0.0654
     18 C16        -3.9537    5.2525   -0.0106 C.2       1 <0>         0.1046
     19 N2         -2.6077    5.0074    0.1387 N.pl3     1 <0>        -0.5669
     20 H1         -1.9247    5.6918    0.2163 H         1 <0>         0.4216
     21 C17        -4.5789    6.5878   -0.0766 C.ar      1 <0>        -0.0377
     22 C18        -5.7189    6.8667    0.6811 C.ar      1 <0>        -0.0562
     23 C19        -6.2962    8.1173    0.6182 C.ar      1 <0>        -0.1491
     24 C20        -5.7531    9.0939   -0.2017 C.ar      1 <0>         0.1070
     25 C21        -4.6249    8.8216   -0.9595 C.ar      1 <0>        -0.1511
     26 C22        -4.0363    7.5761   -0.9016 C.ar      1 <0>        -0.0777
     27 F1         -6.3258   10.3160   -0.2629 F         1 <0>        -0.1367
     28 C23        -6.0827    3.8572   -0.2511 C.ar      1 <0>        -0.0049
     29 C24        -6.8328    3.2836    0.7763 C.ar      1 <0>        -0.0935
     30 C25        -8.1927    3.1111    0.6200 C.ar      1 <0>        -0.1192
     31 C26        -8.8110    3.4955   -0.5565 C.ar      1 <0>        -0.1190
     32 C27        -8.0721    4.0600   -1.5810 C.ar      1 <0>        -0.1196
     33 C28        -6.7124    4.2427   -1.4352 C.ar      1 <0>        -0.1008
     34 N3         -0.0698    0.9252    0.4130 N.pl3     1 <0>        -0.8457
     35 H2        -11.0805   -4.5490   -0.8216 H         1 <0>         0.1213
     36 H3         -9.7067   -4.0932   -2.8137 H         1 <0>         0.1220
     37 H4         -7.4310   -3.1880   -2.5590 H         1 <0>         0.1212
     38 H5         -7.8989   -3.2045    1.6802 H         1 <0>         0.1212
     39 H6        -10.1781   -4.1009    1.4251 H         1 <0>         0.1220
     40 H7         -5.5123   -2.9251   -1.0949 H         1 <0>         0.0758
     41 H8         -5.7091   -2.9280    0.6742 H         1 <0>         0.0759
     42 H9         -6.8119   -0.7103    0.5551 H         1 <0>         0.0771
     43 H10        -6.6151   -0.7074   -1.2139 H         1 <0>         0.0768
     44 H11        -4.1538   -0.8339   -0.9403 H         1 <0>         0.0659
     45 H12        -4.3506   -0.8368    0.8288 H         1 <0>         0.0663
     46 H13        -2.4473   -0.1753    0.1462 H         1 <0>         0.1383
     47 H14        -6.1454    6.1052    1.3173 H         1 <0>         0.1377
     48 H15        -7.1756    8.3351    1.2062 H         1 <0>         0.1406
     49 H16        -4.2064    9.5864   -1.5969 H         1 <0>         0.1396
     50 H17        -3.1576    7.3648   -1.4930 H         1 <0>         0.1334
     51 H18        -6.3504    2.9787    1.6932 H         1 <0>         0.1179
     52 H19        -8.7749    2.6707    1.4158 H         1 <0>         0.1197
     53 H20        -9.8752    3.3545   -0.6756 H         1 <0>         0.1185
     54 H21        -8.5607    4.3580   -2.4970 H         1 <0>         0.1199
     55 H22        -6.1367    4.6835   -2.2356 H         1 <0>         0.1176
     56 H23        -0.0679   -0.0448    0.4113 H         1 <0>         0.4100
     57 H24         0.7646    1.4116    0.5029 H         1 <0>         0.4053
@<TRIPOS>BOND
     1    1    6 ar
     2    1    2 ar
     3    1   35 1
     4    2    3 ar
     5    2   36 1
     6    3    4 ar
     7    3   37 1
     8    4    5 ar
     9    4    7 1
    10    5    6 ar
    11    5   38 1
    12    6   39 1
    13    7    8 1
    14    7   40 1
    15    7   41 1
    16    8    9 1
    17    8   42 1
    18    8   43 1
    19    9   10 1
    20    9   44 1
    21    9   45 1
    22   10   11 1
    23   11   16 ar
    24   11   12 ar
    25   12   13 ar
    26   12   46 1
    27   13   14 ar
    28   13   34 1
    29   14   15 ar
    30   15   19 1
    31   15   16 ar
    32   16   17 1
    33   17   18 2
    34   17   28 1
    35   18   19 1
    36   18   21 1
    37   19   20 1
    38   21   26 ar
    39   21   22 ar
    40   22   23 ar
    41   22   47 1
    42   23   24 ar
    43   23   48 1
    44   24   25 ar
    45   24   27 1
    46   25   26 ar
    47   25   49 1
    48   26   50 1
    49   28   33 ar
    50   28   29 ar
    51   29   30 ar
    52   29   51 1
    53   30   31 ar
    54   30   52 1
    55   31   32 ar
    56   31   53 1
    57   32   33 ar
    58   32   54 1
    59   33   55 1
    60   34   56 1
    61   34   57 1
@<TRIPOS>MOLECULE
ZINC03815690
   58    62     0     0     0
SMALL
USER_CHARGES

@<TRIPOS>ATOM
      1 C1        -10.0823   -4.1522   -0.7099 C.ar      1 <0>        -0.1174
      2 C2         -9.3111   -3.8963   -1.8282 C.ar      1 <0>        -0.1165
      3 C3         -8.0336   -3.3880   -1.6852 C.ar      1 <0>        -0.1153
      4 C4         -7.5271   -3.1360   -0.4239 C.ar      1 <0>        -0.0916
      5 C5         -8.2962   -3.3972    0.6946 C.ar      1 <0>        -0.1153
      6 C6         -9.5757   -3.9006    0.5514 C.ar      1 <0>        -0.1166
      7 C7         -6.1342   -2.5822   -0.2680 C.3       1 <0>        -0.0744
      8 C8         -6.1899   -1.0532   -0.2717 C.3       1 <0>        -0.1150
      9 C9         -4.7758   -0.4910   -0.1134 C.3       1 <0>         0.0425
     10 O1         -4.8278    0.9370   -0.1168 O.3       1 <0>        -0.2603
     11 C10        -3.6493    1.5968    0.0154 C.ar      1 <0>         0.3472
     12 C11        -2.4556    0.9046    0.1470 C.ar      1 <0>        -0.3389
     13 C12        -1.2675    1.6180    0.2809 C.ar      1 <0>         0.5338
     14 C13        -2.3696    3.6531    0.1621 C.ar      1 <0>         0.3287
     15 C14        -3.6041    2.9994    0.0232 C.ar      1 <0>        -0.1628
     16 C15        -4.6246    4.0504   -0.0880 C.2       1 <0>        -0.0266
     17 C16        -3.9537    5.2525   -0.0106 C.2       1 <0>         0.1319
     18 N1         -2.6077    5.0074    0.1387 N.pl3     1 <0>        -0.5442
     19 H1         -1.9247    5.6918    0.2163 H         1 <0>         0.4356
     20 C17        -4.5789    6.5878   -0.0766 C.ar      1 <0>        -0.0687
     21 C18        -5.7189    6.8667    0.6811 C.ar      1 <0>        -0.0449
     22 C19        -6.2962    8.1173    0.6182 C.ar      1 <0>        -0.1488
     23 C20        -5.7531    9.0939   -0.2017 C.ar      1 <0>         0.1279
     24 C21        -4.6249    8.8216   -0.9595 C.ar      1 <0>        -0.1514
     25 C22        -4.0363    7.5761   -0.9016 C.ar      1 <0>        -0.0698
     26 F1         -6.3258   10.3160   -0.2629 F         1 <0>        -0.1276
     27 C23        -6.0827    3.8572   -0.2511 C.ar      1 <0>        -0.0391
     28 C24        -6.8328    3.2836    0.7763 C.ar      1 <0>        -0.0898
     29 C25        -8.1927    3.1111    0.6200 C.ar      1 <0>        -0.1163
     30 C26        -8.8110    3.4955   -0.5565 C.ar      1 <0>        -0.1020
     31 C27        -8.0721    4.0600   -1.5810 C.ar      1 <0>        -0.1160
     32 C28        -6.7124    4.2427   -1.4352 C.ar      1 <0>        -0.0907
     33 N2         -0.0698    0.9252    0.4130 N.pl3     1 <0>        -0.8194
     34 H2        -11.0805   -4.5490   -0.8216 H         1 <0>         0.1241
     35 H3         -9.7067   -4.0932   -2.8137 H         1 <0>         0.1241
     36 H4         -7.4310   -3.1880   -2.5590 H         1 <0>         0.1209
     37 H5         -7.8989   -3.2045    1.6802 H         1 <0>         0.1210
     38 H6        -10.1781   -4.1009    1.4251 H         1 <0>         0.1241
     39 H7         -5.5123   -2.9251   -1.0949 H         1 <0>         0.0775
     40 H8         -5.7091   -2.9280    0.6742 H         1 <0>         0.0776
     41 H9         -6.8119   -0.7103    0.5551 H         1 <0>         0.0835
     42 H10        -6.6151   -0.7074   -1.2139 H         1 <0>         0.0832
     43 H11        -4.1538   -0.8339   -0.9403 H         1 <0>         0.0829
     44 H12        -4.3506   -0.8368    0.8288 H         1 <0>         0.0833
     45 H13        -2.4473   -0.1753    0.1462 H         1 <0>         0.1848
     46 H14        -6.1454    6.1052    1.3173 H         1 <0>         0.1409
     47 H15        -7.1756    8.3351    1.2062 H         1 <0>         0.1475
     48 H16        -4.2064    9.5864   -1.5969 H         1 <0>         0.1458
     49 H17        -3.1576    7.3648   -1.4930 H         1 <0>         0.1337
     50 H18        -6.3504    2.9787    1.6932 H         1 <0>         0.1204
     51 H19        -8.7749    2.6707    1.4158 H         1 <0>         0.1269
     52 H20        -9.8752    3.3545   -0.6756 H         1 <0>         0.1263
     53 H21        -8.5607    4.3580   -2.4970 H         1 <0>         0.1273
     54 H22        -6.1367    4.6835   -2.2356 H         1 <0>         0.1215
     55 H23        -0.0679   -0.0448    0.4113 H         1 <0>         0.4392
     56 H24         0.7646    1.4116    0.5029 H         1 <0>         0.4212
     57 N3         -1.1840    2.9785    0.2990 N.ar      1 <0>        -0.5653
     58 H25        -0.2881    3.4679    0.4084 H         1 <0>         0.4594
@<TRIPOS>BOND
     1    1    6 ar
     2    1    2 ar
     3    1   34 1
     4    2    3 ar
     5    2   35 1
     6    3    4 ar
     7    3   36 1
     8    4    5 ar
     9    4    7 1
    10    5    6 ar
    11    5   37 1
    12    6   38 1
    13    7    8 1
    14    7   39 1
    15    7   40 1
    16    8    9 1
    17    8   41 1
    18    8   42 1
    19    9   10 1
    20    9   43 1
    21    9   44 1
    22   10   11 1
    23   11   15 ar
    24   11   12 ar
    25   12   13 ar
    26   12   45 1
    27   13   33 1
    28   13   57 ar
    29   14   18 1
    30   14   15 ar
    31   14   57 ar
    32   15   16 1
    33   16   17 2
    34   16   27 1
    35   17   18 1
    36   17   20 1
    37   18   19 1
    38   20   25 ar
    39   20   21 ar
    40   21   22 ar
    41   21   46 1
    42   22   23 ar
    43   22   47 1
    44   23   24 ar
    45   23   26 1
    46   24   25 ar
    47   24   48 1
    48   25   49 1
    49   27   32 ar
    50   27   28 ar
    51   28   29 ar
    52   28   50 1
    53   29   30 ar
    54   29   51 1
    55   30   31 ar
    56   30   52 1
    57   31   32 ar
    58   31   53 1
    59   32   54 1
    60   33   55 1
    61   33   56 1
    62   57   58 1
@<TRIPOS>MOLECULE
ZINC03815691
   49    52     0     0     0
SMALL
USER_CHARGES

@<TRIPOS>ATOM
      1 C1         -0.8106    1.5560   -3.7296 C.3       1 <0>        -0.1528
      2 C2         -0.0647    1.0580   -2.4902 C.3       1 <0>        -0.1210
      3 C3         -0.7770    1.5569   -1.2314 C.3       1 <0>        -0.1184
      4 C4         -0.0310    1.0588    0.0081 C.3       1 <0>         0.0537
      5 O1         -0.6965    1.5248    1.1837 O.3       1 <0>        -0.2894
      6 C5         -0.1590    1.1690    2.3778 C.ar      1 <0>         0.2622
      7 C6          0.9853    0.3876    2.4410 C.ar      1 <0>        -0.3721
      8 C7          1.5108    0.0525    3.6838 C.ar      1 <0>         0.4130
      9 N1          0.9285    0.4370    4.8053 N.ar      1 <0>        -0.5464
     10 C8         -0.1697    1.1870    4.8035 C.ar      1 <0>         0.3696
     11 C9         -0.7444    1.5805    3.5845 C.ar      1 <0>        -0.1990
     12 C10        -1.9186    2.3973    3.9191 C.2       1 <0>        -0.0691
     13 C11        -1.9758    2.4489    5.2958 C.2       1 <0>         0.1165
     14 N2         -0.9377    1.7108    5.8170 N.pl3     1 <0>        -0.5628
     15 H1         -0.7649    1.5883    6.7636 H         1 <0>         0.4247
     16 C12        -2.9980    3.1646    6.0842 C.ar      1 <0>        -0.0419
     17 C13        -3.3708    4.4645    5.7336 C.ar      1 <0>        -0.0545
     18 C14        -4.3304    5.1260    6.4704 C.ar      1 <0>        -0.1489
     19 C15        -4.9166    4.5079    7.5638 C.ar      1 <0>         0.1094
     20 C16        -4.5466    3.2204    7.9199 C.ar      1 <0>        -0.1508
     21 C17        -3.5924    2.5468    7.1872 C.ar      1 <0>        -0.0766
     22 F1         -5.8519    5.1631    8.2857 F         1 <0>        -0.1357
     23 C18        -2.8546    3.0369    2.9679 C.ar      1 <0>        -0.0076
     24 C19        -2.4085    4.0536    2.1226 C.ar      1 <0>        -0.0932
     25 C20        -3.2846    4.6414    1.2335 C.ar      1 <0>        -0.1192
     26 C21        -4.6059    4.2336    1.1879 C.ar      1 <0>        -0.1180
     27 C22        -5.0558    3.2301    2.0273 C.ar      1 <0>        -0.1192
     28 C23        -4.1884    2.6298    2.9165 C.ar      1 <0>        -0.0999
     29 O2          2.6365   -0.7023    3.7461 O.3       1 <0>        -0.4499
     30 H2         -0.8279    2.6459   -3.7299 H         1 <0>         0.0564
     31 H3         -0.3030    1.2005   -4.6264 H         1 <0>         0.0579
     32 H4         -1.8322    1.1763   -3.7158 H         1 <0>         0.0564
     33 H5          0.9570    1.4376   -2.5041 H         1 <0>         0.0650
     34 H6         -0.0473   -0.0320   -2.4900 H         1 <0>         0.0649
     35 H7         -1.7987    1.1772   -1.2176 H         1 <0>         0.0753
     36 H8         -0.7944    2.6467   -1.2315 H         1 <0>         0.0756
     37 H9         -0.0137   -0.0310    0.0082 H         1 <0>         0.0665
     38 H10         0.9906    1.4385   -0.0058 H         1 <0>         0.0668
     39 H11         1.4666    0.0494    1.5353 H         1 <0>         0.1471
     40 H12        -2.9114    4.9487    4.8845 H         1 <0>         0.1384
     41 H13        -4.6229    6.1292    6.1976 H         1 <0>         0.1416
     42 H14        -5.0067    2.7441    8.7731 H         1 <0>         0.1407
     43 H15        -3.3046    1.5439    7.4658 H         1 <0>         0.1341
     44 H16        -1.3784    4.3761    2.1606 H         1 <0>         0.1182
     45 H17        -2.9394    5.4251    0.5754 H         1 <0>         0.1208
     46 H18        -5.2889    4.7004    0.4936 H         1 <0>         0.1196
     47 H19        -6.0884    2.9163    1.9869 H         1 <0>         0.1209
     48 H20        -4.5408    1.8464    3.5710 H         1 <0>         0.1183
     49 H21         2.9513   -0.9085    2.8196 H         1 <0>         0.4129
@<TRIPOS>BOND
     1    1    2 1
     2    1   30 1
     3    1   31 1
     4    1   32 1
     5    2    3 1
     6    2   33 1
     7    2   34 1
     8    3    4 1
     9    3   35 1
    10    3   36 1
    11    4    5 1
    12    4   37 1
    13    4   38 1
    14    5    6 1
    15    6    7 ar
    16    6   11 ar
    17    7   39 1
    18    7    8 ar
    19    8    9 ar
    20    8   29 1
    21    9   10 ar
    22   10   14 1
    23   10   11 ar
    24   11   12 1
    25   12   13 2
    26   12   23 1
    27   13   14 1
    28   13   16 1
    29   14   15 1
    30   16   21 ar
    31   16   17 ar
    32   17   18 ar
    33   17   40 1
    34   18   19 ar
    35   18   41 1
    36   19   20 ar
    37   19   22 1
    38   20   21 ar
    39   20   42 1
    40   21   43 1
    41   23   28 ar
    42   23   24 ar
    43   24   25 ar
    44   24   44 1
    45   25   26 ar
    46   25   45 1
    47   26   27 ar
    48   26   46 1
    49   27   28 ar
    50   27   47 1
    51   28   48 1
    52   29   49 1
@<TRIPOS>MOLECULE
ZINC03815691
   49    52     0     0     0
SMALL
USER_CHARGES

@<TRIPOS>ATOM
      1 C1         -0.8106    1.5560   -3.7296 C.3       1 <0>        -0.1528
      2 C2         -0.0647    1.0580   -2.4902 C.3       1 <0>        -0.1210
      3 C3         -0.7770    1.5569   -1.2314 C.3       1 <0>        -0.1184
      4 C4         -0.0310    1.0588    0.0081 C.3       1 <0>         0.0537
      5 O1         -0.6965    1.5248    1.1837 O.3       1 <0>        -0.2894
      6 C5         -0.1590    1.1690    2.3778 C.ar      1 <0>         0.2622
      7 C6          0.9853    0.3876    2.4410 C.ar      1 <0>        -0.3721
      8 C7          1.5108    0.0525    3.6838 C.ar      1 <0>         0.4130
      9 N1          0.9285    0.4370    4.8053 N.ar      1 <0>        -0.5464
     10 C8         -0.1697    1.1870    4.8035 C.ar      1 <0>         0.3696
     11 C9         -0.7444    1.5805    3.5845 C.ar      1 <0>        -0.1990
     12 C10        -1.9186    2.3973    3.9191 C.2       1 <0>        -0.0691
     13 C11        -1.9758    2.4489    5.2958 C.2       1 <0>         0.1165
     14 N2         -0.9377    1.7108    5.8170 N.pl3     1 <0>        -0.5628
     15 H1         -0.7649    1.5883    6.7636 H         1 <0>         0.4247
     16 C12        -2.9980    3.1646    6.0842 C.ar      1 <0>        -0.0419
     17 C13        -3.3708    4.4645    5.7336 C.ar      1 <0>        -0.0545
     18 C14        -4.3304    5.1260    6.4704 C.ar      1 <0>        -0.1489
     19 C15        -4.9166    4.5079    7.5638 C.ar      1 <0>         0.1094
     20 C16        -4.5466    3.2204    7.9199 C.ar      1 <0>        -0.1508
     21 C17        -3.5924    2.5468    7.1872 C.ar      1 <0>        -0.0766
     22 F1         -5.8519    5.1631    8.2857 F         1 <0>        -0.1357
     23 C18        -2.8546    3.0369    2.9679 C.ar      1 <0>        -0.0076
     24 C19        -2.4085    4.0536    2.1226 C.ar      1 <0>        -0.0932
     25 C20        -3.2846    4.6414    1.2335 C.ar      1 <0>        -0.1192
     26 C21        -4.6059    4.2336    1.1879 C.ar      1 <0>        -0.1180
     27 C22        -5.0558    3.2301    2.0273 C.ar      1 <0>        -0.1192
     28 C23        -4.1884    2.6298    2.9165 C.ar      1 <0>        -0.0999
     29 O2          2.6365   -0.7023    3.7461 O.3       1 <0>        -0.4499
     30 H2         -0.8279    2.6459   -3.7299 H         1 <0>         0.0564
     31 H3         -0.3030    1.2005   -4.6264 H         1 <0>         0.0579
     32 H4         -1.8322    1.1763   -3.7158 H         1 <0>         0.0564
     33 H5          0.9570    1.4376   -2.5041 H         1 <0>         0.0650
     34 H6         -0.0473   -0.0320   -2.4900 H         1 <0>         0.0649
     35 H7         -1.7987    1.1772   -1.2176 H         1 <0>         0.0753
     36 H8         -0.7944    2.6467   -1.2315 H         1 <0>         0.0756
     37 H9         -0.0137   -0.0310    0.0082 H         1 <0>         0.0665
     38 H10         0.9906    1.4385   -0.0058 H         1 <0>         0.0668
     39 H11         1.4666    0.0494    1.5353 H         1 <0>         0.1471
     40 H12        -2.9114    4.9487    4.8845 H         1 <0>         0.1384
     41 H13        -4.6229    6.1292    6.1976 H         1 <0>         0.1416
     42 H14        -5.0067    2.7441    8.7731 H         1 <0>         0.1407
     43 H15        -3.3046    1.5439    7.4658 H         1 <0>         0.1341
     44 H16        -1.3784    4.3761    2.1606 H         1 <0>         0.1182
     45 H17        -2.9394    5.4251    0.5754 H         1 <0>         0.1208
     46 H18        -5.2889    4.7004    0.4936 H         1 <0>         0.1196
     47 H19        -6.0884    2.9163    1.9869 H         1 <0>         0.1209
     48 H20        -4.5408    1.8464    3.5710 H         1 <0>         0.1183
     49 H21         2.9513   -0.9085    2.8196 H         1 <0>         0.4129
@<TRIPOS>BOND
     1    1    2 1
     2    1   30 1
     3    1   31 1
     4    1   32 1
     5    2    3 1
     6    2   33 1
     7    2   34 1
     8    3    4 1
     9    3   35 1
    10    3   36 1
    11    4    5 1
    12    4   37 1
    13    4   38 1
    14    5    6 1
    15    6    7 ar
    16    6   11 ar
    17    7   39 1
    18    7    8 ar
    19    8    9 ar
    20    8   29 1
    21    9   10 ar
    22   10   14 1
    23   10   11 ar
    24   11   12 1
    25   12   13 2
    26   12   23 1
    27   13   14 1
    28   13   16 1
    29   14   15 1
    30   16   21 ar
    31   16   17 ar
    32   17   18 ar
    33   17   40 1
    34   18   19 ar
    35   18   41 1
    36   19   20 ar
    37   19   22 1
    38   20   21 ar
    39   20   42 1
    40   21   43 1
    41   23   28 ar
    42   23   24 ar
    43   24   25 ar
    44   24   44 1
    45   25   26 ar
    46   25   45 1
    47   26   27 ar
    48   26   46 1
    49   27   28 ar
    50   27   47 1
    51   28   48 1
    52   29   49 1
@<TRIPOS>MOLECULE
ZINC03815692
   45    48     0     0     0
SMALL
USER_CHARGES

@<TRIPOS>ATOM
      1 C1          2.8375    3.3867    1.2181 C.ar      1 <0>        -0.0388
      2 C2          3.2408    4.6856    1.4481 C.ar      1 <0>        -0.1595
      3 C3          2.5123    5.7424    0.9258 C.ar      1 <0>         0.1136
      4 C4          1.3791    5.5002    0.1661 C.ar      1 <0>        -0.1574
      5 C5          0.9708    4.2046   -0.0738 C.ar      1 <0>        -0.0544
      6 C6          1.7006    3.1376    0.4496 C.ar      1 <0>        -0.0276
      7 C7          1.2661    1.7443    0.1953 C.2       1 <0>         0.1271
      8 C8          2.0918    0.6482    0.0120 C.2       1 <0>         0.0074
      9 N1          1.2577   -0.4292   -0.1923 N.pl3     1 <0>        -0.4486
     10 C9         -0.0104    0.0263   -0.1297 C.2       1 <0>         0.2111
     11 N2         -0.0031    1.3105    0.0994 N.2       1 <0>        -0.4684
     12 C10         1.6716   -1.8138   -0.4327 C.3       1 <0>         0.1123
     13 C11         1.0087   -2.3312   -1.7122 C.3       1 <0>        -0.1602
     14 C12         1.3950   -3.7969   -1.9242 C.3       1 <0>         0.0024
     15 C13         1.6214   -4.1437    0.4634 C.3       1 <0>         0.0017
     16 C14         1.2406   -2.6889    0.7475 C.3       1 <0>        -0.1633
     17 C15         3.5655    0.6364    0.0314 C.ar      1 <0>         0.2981
     18 C16         4.2634   -0.5105    0.4347 C.ar      1 <0>        -0.3121
     19 C17         5.6442   -0.4748    0.4318 C.ar      1 <0>         0.2089
     20 N3          6.2639    0.6359    0.0607 N.ar      1 <0>        -0.5687
     21 C18         5.5803    1.7085   -0.3116 C.ar      1 <0>         0.5848
     22 N4          4.2571    1.7188   -0.3294 N.ar      1 <0>        -0.5471
     23 N5          6.2683    2.8480   -0.6912 N.pl3     1 <0>        -0.8104
     24 F1          2.9080    7.0130    1.1585 F         1 <0>        -0.1355
     25 H1          3.4036    2.5638    1.6289 H         1 <0>         0.1184
     26 H2          4.1232    4.8794    2.0399 H         1 <0>         0.1353
     27 H3          0.8143    6.3271   -0.2385 H         1 <0>         0.1404
     28 H4          0.0872    4.0168   -0.6658 H         1 <0>         0.1368
     29 H5         -0.8962   -0.5795   -0.2512 H         1 <0>         0.2126
     30 H6          2.7554   -1.8564   -0.5411 H         1 <0>         0.1271
     31 H7         -0.0744   -2.2511   -1.6190 H         1 <0>         0.1013
     32 H8          1.3461   -1.7383   -2.5624 H         1 <0>         0.1228
     33 H9          2.4768   -3.8743   -2.0323 H         1 <0>         0.1357
     34 H10         0.9120   -4.1728   -2.8262 H         1 <0>         0.1433
     35 H11         2.7022   -4.2195    0.3441 H         1 <0>         0.1360
     36 H12         1.3029   -4.7716    1.2955 H         1 <0>         0.1436
     37 H13         1.7437   -2.3514    1.6537 H         1 <0>         0.1233
     38 H14         0.1614   -2.6141    0.8810 H         1 <0>         0.1025
     39 H15         3.7340   -1.4020    0.7371 H         1 <0>         0.1353
     40 H16         6.2130   -1.3421    0.7330 H         1 <0>         0.1712
     41 H17         5.7805    3.6403   -0.9657 H         1 <0>         0.4194
     42 H18         7.2383    2.8543   -0.6829 H         1 <0>         0.4205
     43 N6          0.9525   -4.6014   -0.7694 N.4       1 <0>        -0.5187
     44 H19         1.1860   -5.5875   -0.9347 H         1 <0>         0.4424
     45 H20        -0.0636   -4.5041   -0.6589 H         1 <0>         0.4352
@<TRIPOS>BOND
     1    1    6 ar
     2    1    2 ar
     3    1   25 1
     4    2    3 ar
     5    2   26 1
     6    3    4 ar
     7    3   24 1
     8    4    5 ar
     9    4   27 1
    10    5    6 ar
    11    5   28 1
    12    6    7 1
    13    7   11 1
    14    7    8 2
    15    8    9 1
    16    8   17 1
    17    9   10 1
    18    9   12 1
    19   10   11 2
    20   10   29 1
    21   12   16 1
    22   12   13 1
    23   12   30 1
    24   13   14 1
    25   13   31 1
    26   13   32 1
    27   14   33 1
    28   14   34 1
    29   14   43 1
    30   15   16 1
    31   15   35 1
    32   15   36 1
    33   15   43 1
    34   16   37 1
    35   16   38 1
    36   17   22 ar
    37   17   18 ar
    38   18   19 ar
    39   18   39 1
    40   19   20 ar
    41   19   40 1
    42   20   21 ar
    43   21   22 ar
    44   21   23 1
    45   23   41 1
    46   23   42 1
    47   43   44 1
    48   43   45 1
@<TRIPOS>MOLECULE
ZINC03815692
   46    49     0     0     0
SMALL
USER_CHARGES

@<TRIPOS>ATOM
      1 C1          2.8375    3.3867    1.2181 C.ar      1 <0>        -0.0128
      2 C2          3.2408    4.6856    1.4481 C.ar      1 <0>        -0.1548
      3 C3          2.5123    5.7424    0.9258 C.ar      1 <0>         0.1529
      4 C4          1.3791    5.5002    0.1661 C.ar      1 <0>        -0.1511
      5 C5          0.9708    4.2046   -0.0738 C.ar      1 <0>        -0.0557
      6 C6          1.7006    3.1376    0.4496 C.ar      1 <0>        -0.0906
      7 C7          1.2661    1.7443    0.1953 C.2       1 <0>         0.1619
      8 C8          2.0918    0.6482    0.0120 C.2       1 <0>         0.0923
      9 N1          1.2577   -0.4292   -0.1923 N.pl3     1 <0>        -0.3987
     10 C9         -0.0104    0.0263   -0.1297 C.cat     1 <0>         0.2955
     11 C10         1.6716   -1.8138   -0.4327 C.3       1 <0>         0.1006
     12 C11         1.0087   -2.3312   -1.7122 C.3       1 <0>        -0.1643
     13 C12         1.3950   -3.7969   -1.9242 C.3       1 <0>         0.0016
     14 C13         1.6214   -4.1437    0.4634 C.3       1 <0>         0.0009
     15 C14         1.2406   -2.6889    0.7475 C.3       1 <0>        -0.1671
     16 C15         3.5655    0.6364    0.0314 C.ar      1 <0>         0.2614
     17 C16         4.2634   -0.5105    0.4347 C.ar      1 <0>        -0.2968
     18 C17         5.6442   -0.4748    0.4318 C.ar      1 <0>         0.2236
     19 N2          6.2639    0.6359    0.0607 N.ar      1 <0>        -0.5461
     20 C18         5.5803    1.7085   -0.3116 C.ar      1 <0>         0.5931
     21 N3          4.2571    1.7188   -0.3294 N.ar      1 <0>        -0.5436
     22 N4          6.2683    2.8480   -0.6912 N.pl3     1 <0>        -0.7996
     23 F1          2.9080    7.0130    1.1585 F         1 <0>        -0.1178
     24 H1          3.4036    2.5638    1.6289 H         1 <0>         0.1292
     25 H2          4.1232    4.8794    2.0399 H         1 <0>         0.1501
     26 H3          0.8143    6.3271   -0.2385 H         1 <0>         0.1541
     27 H4          0.0872    4.0168   -0.6658 H         1 <0>         0.1366
     28 H5         -0.8962   -0.5795   -0.2512 H         1 <0>         0.2646
     29 H6          2.7554   -1.8564   -0.5411 H         1 <0>         0.1523
     30 H7         -0.0744   -2.2511   -1.6190 H         1 <0>         0.1065
     31 H8          1.3461   -1.7383   -2.5624 H         1 <0>         0.1317
     32 H9          2.4768   -3.8743   -2.0323 H         1 <0>         0.1427
     33 H10         0.9120   -4.1728   -2.8262 H         1 <0>         0.1532
     34 H11         2.7022   -4.2195    0.3441 H         1 <0>         0.1429
     35 H12         1.3029   -4.7716    1.2955 H         1 <0>         0.1537
     36 H13         1.7437   -2.3514    1.6537 H         1 <0>         0.1325
     37 H14         0.1614   -2.6141    0.8810 H         1 <0>         0.1086
     38 H15         3.7340   -1.4020    0.7371 H         1 <0>         0.1415
     39 H16         6.2130   -1.3421    0.7330 H         1 <0>         0.1834
     40 H17         5.7805    3.6403   -0.9657 H         1 <0>         0.4226
     41 H18         7.2383    2.8543   -0.6829 H         1 <0>         0.4282
     42 N5          0.9525   -4.6014   -0.7694 N.4       1 <0>        -0.5214
     43 H19         1.1860   -5.5875   -0.9347 H         1 <0>         0.4516
     44 H20        -0.0636   -4.5041   -0.6589 H         1 <0>         0.4369
     45 N6         -0.0037    1.3109    0.0995 N.pl3     1 <0>        -0.4741
     46 H21        -0.8393    1.9004    0.1924 H         1 <0>         0.4878
@<TRIPOS>BOND
     1    1    6 ar
     2    1    2 ar
     3    1   24 1
     4    2    3 ar
     5    2   25 1
     6    3    4 ar
     7    3   23 1
     8    4    5 ar
     9    4   26 1
    10    5    6 ar
    11    5   27 1
    12    6    7 1
    13    7    8 2
    14    7   45 1
    15    8    9 1
    16    8   16 1
    17    9   10 1
    18    9   11 1
    19   10   28 1
    20   10   45 2
    21   11   15 1
    22   11   12 1
    23   11   29 1
    24   12   13 1
    25   12   30 1
    26   12   31 1
    27   13   32 1
    28   13   33 1
    29   13   42 1
    30   14   15 1
    31   14   34 1
    32   14   35 1
    33   14   42 1
    34   15   36 1
    35   15   37 1
    36   16   21 ar
    37   16   17 ar
    38   17   18 ar
    39   17   38 1
    40   18   19 ar
    41   18   39 1
    42   19   20 ar
    43   20   21 ar
    44   20   22 1
    45   22   40 1
    46   22   41 1
    47   42   43 1
    48   42   44 1
    49   45   46 1
@<TRIPOS>MOLECULE
ZINC03815693
   44    47     0     0     0
SMALL
USER_CHARGES

@<TRIPOS>ATOM
      1 C1         -1.2218    2.1638    0.0369 C.ar      1 <0>        -0.0580
      2 C2         -1.2313    3.5432    0.0563 C.ar      1 <0>        -0.1452
      3 C3         -0.0376    4.2466    0.0511 C.ar      1 <0>         0.1193
      4 C4          1.1710    3.5691    0.0325 C.ar      1 <0>        -0.1479
      5 C5          1.1910    2.1898    0.0193 C.ar      1 <0>        -0.0806
      6 C6         -0.0078    1.4773    0.0244 C.ar      1 <0>        -0.0501
      7 C7          0.0080   -0.0041    0.0103 C.2       1 <0>         0.0494
      8 C8         -0.8937   -0.8393    0.6455 C.2       1 <0>         0.0676
      9 N1         -0.4904   -2.1247    0.3621 N.2       1 <0>        -0.4569
     10 H1          1.6590   -0.4553   -1.1869 H         1 <0>         0.4317
     11 C9          0.6055   -2.0395   -0.4216 C.2       1 <0>         0.1743
     12 N2          0.8950   -0.7855   -0.6325 N.pl3     1 <0>        -0.5064
     13 C10         1.3761   -3.2133   -0.9688 C.3       1 <0>        -0.0132
     14 H2          1.8988   -2.9138   -1.8772 H         1 <0>         0.1077
     15 C11         2.3927   -3.6880    0.0731 C.3       1 <0>        -0.1329
     16 C12         3.1290   -4.9171   -0.4668 C.3       1 <0>        -0.1446
     17 C13         2.1109   -6.0099   -0.8006 C.3       1 <0>        -0.0062
     18 C14         0.4087   -4.3551   -1.2889 C.3       1 <0>         0.0084
     19 C15        -2.0491   -0.4340    1.4689 C.ar      1 <0>         0.0300
     20 C16        -1.9295    0.5802    2.4286 C.ar      1 <0>        -0.1534
     21 C17        -3.0363    0.9302    3.1720 C.ar      1 <0>         0.1062
     22 N3         -4.1922    0.3175    2.9967 N.ar      1 <0>        -0.4769
     23 C18        -4.3474   -0.6462    2.1082 C.ar      1 <0>         0.1037
     24 C19        -3.2955   -1.0564    1.3174 C.ar      1 <0>        -0.1478
     25 F1         -0.0520    5.5975    0.0640 F         1 <0>        -0.1292
     26 H3         -2.1528    1.6165    0.0364 H         1 <0>         0.1361
     27 H4         -2.1707    4.0756    0.0710 H         1 <0>         0.1459
     28 H5          2.0989    4.1218    0.0285 H         1 <0>         0.1442
     29 H6          2.1335    1.6627    0.0047 H         1 <0>         0.1294
     30 H7          3.1100   -2.8916    0.2714 H         1 <0>         0.0935
     31 H8          1.8740   -3.9491    0.9956 H         1 <0>         0.0936
     32 H9          3.6793   -4.6451   -1.3676 H         1 <0>         0.0899
     33 H10         3.8241   -5.2855    0.2877 H         1 <0>         0.1175
     34 H11         2.6308   -6.8813   -1.1987 H         1 <0>         0.1352
     35 H12         1.5706   -6.2912    0.1033 H         1 <0>         0.1332
     36 H13        -0.1242   -4.6443   -0.3831 H         1 <0>         0.1466
     37 H14        -0.3072   -4.0243   -2.0414 H         1 <0>         0.1359
     38 H15        -0.9856    1.0827    2.5806 H         1 <0>         0.1350
     39 H16        -2.9555    1.7138    3.9107 H         1 <0>         0.1612
     40 H17        -5.3119   -1.1196    1.9990 H         1 <0>         0.1606
     41 H18        -3.4299   -1.8451    0.5919 H         1 <0>         0.1360
     42 N4          1.1600   -5.5117   -1.8129 N.4       1 <0>        -0.5152
     43 H19         0.5013   -6.2610   -2.0557 H         1 <0>         0.4413
     44 H20         1.6782   -5.2263   -2.6520 H         1 <0>         0.4310
@<TRIPOS>BOND
     1    1    6 ar
     2    1    2 ar
     3    1   26 1
     4    2    3 ar
     5    2   27 1
     6    3    4 ar
     7    3   25 1
     8    4    5 ar
     9    4   28 1
    10    5    6 ar
    11    5   29 1
    12    6    7 1
    13    7   12 1
    14    7    8 2
    15    8    9 1
    16    8   19 1
    17    9   11 2
    18   10   12 1
    19   11   13 1
    20   11   12 1
    21   13   14 1
    22   13   18 1
    23   13   15 1
    24   15   16 1
    25   15   30 1
    26   15   31 1
    27   16   17 1
    28   16   32 1
    29   16   33 1
    30   17   34 1
    31   17   35 1
    32   17   42 1
    33   18   36 1
    34   18   37 1
    35   18   42 1
    36   19   24 ar
    37   19   20 ar
    38   20   21 ar
    39   20   38 1
    40   21   22 ar
    41   21   39 1
    42   22   23 ar
    43   23   24 ar
    44   23   40 1
    45   24   41 1
    46   42   43 1
    47   42   44 1
@<TRIPOS>MOLECULE
ZINC03815693
   45    48     0     0     0
SMALL
USER_CHARGES

@<TRIPOS>ATOM
      1 C1         -1.2339    2.1604    0.0196 C.ar      1 <0>        -0.0417
      2 C2         -1.2473    3.5398    0.0335 C.ar      1 <0>        -0.1458
      3 C3         -0.0556    4.2466    0.0259 C.ar      1 <0>         0.1550
      4 C4          1.1549    3.5725    0.0103 C.ar      1 <0>        -0.1470
      5 C5          1.1788    2.1932    0.0026 C.ar      1 <0>        -0.0587
      6 C6         -0.0180    1.4773    0.0102 C.ar      1 <0>        -0.1010
      7 C7          0.0021   -0.0041    0.0020 C.2       1 <0>         0.1328
      8 C8         -0.8937   -0.8393    0.6455 C.2       1 <0>         0.1296
      9 N1         -0.4904   -2.1247    0.3621 N.pl3     1 <0>        -0.4983
     10 H1         -0.9284   -2.9662    0.6784 H         1 <0>         0.4700
     11 C9          0.6055   -2.0395   -0.4216 C.cat     1 <0>         0.3006
     12 C10         1.3761   -3.2133   -0.9688 C.3       1 <0>        -0.0519
     13 H2          1.8988   -2.9138   -1.8772 H         1 <0>         0.1500
     14 C11         2.3927   -3.6880    0.0731 C.3       1 <0>        -0.1395
     15 C12         3.1290   -4.9171   -0.4668 C.3       1 <0>        -0.1458
     16 C13         2.1109   -6.0099   -0.8006 C.3       1 <0>        -0.0125
     17 C14         0.4087   -4.3551   -1.2889 C.3       1 <0>        -0.0077
     18 C15        -2.0491   -0.4340    1.4689 C.ar      1 <0>        -0.0340
     19 C16        -1.9295    0.5802    2.4286 C.ar      1 <0>        -0.1289
     20 C17        -3.0363    0.9302    3.1720 C.ar      1 <0>         0.1226
     21 N2         -4.1922    0.3175    2.9967 N.ar      1 <0>        -0.4503
     22 C18        -4.3474   -0.6462    2.1082 C.ar      1 <0>         0.1202
     23 C19        -3.2955   -1.0564    1.3174 C.ar      1 <0>        -0.1488
     24 F1         -0.0739    5.5975    0.0334 F         1 <0>        -0.1144
     25 H3         -2.1633    1.6104    0.0210 H         1 <0>         0.1407
     26 H4         -2.1883    4.0696    0.0458 H         1 <0>         0.1566
     27 H5          2.0812    4.1278    0.0044 H         1 <0>         0.1561
     28 H6          2.1228    1.6687   -0.0096 H         1 <0>         0.1368
     29 H7          3.1100   -2.8916    0.2714 H         1 <0>         0.1107
     30 H8          1.8740   -3.9491    0.9956 H         1 <0>         0.0964
     31 H9          3.6793   -4.6451   -1.3676 H         1 <0>         0.1008
     32 H10         3.8241   -5.2855    0.2877 H         1 <0>         0.1309
     33 H11         2.6308   -6.8813   -1.1987 H         1 <0>         0.1486
     34 H12         1.5706   -6.2912    0.1033 H         1 <0>         0.1372
     35 H13        -0.1242   -4.6443   -0.3831 H         1 <0>         0.1359
     36 H14        -0.3072   -4.0243   -2.0414 H         1 <0>         0.1501
     37 H15        -0.9856    1.0827    2.5806 H         1 <0>         0.1483
     38 H16        -2.9555    1.7138    3.9107 H         1 <0>         0.1761
     39 H17        -5.3119   -1.1196    1.9990 H         1 <0>         0.1738
     40 H18        -3.4299   -1.8451    0.5919 H         1 <0>         0.1402
     41 N3          1.1600   -5.5117   -1.8129 N.4       1 <0>        -0.5113
     42 H19         0.5013   -6.2610   -2.0557 H         1 <0>         0.4521
     43 H20         1.6782   -5.2263   -2.6520 H         1 <0>         0.4410
     44 N4          0.8919   -0.7853   -0.6377 N.pl3     1 <0>        -0.4601
     45 H21         1.6756   -0.4464   -1.2080 H         1 <0>         0.4839
@<TRIPOS>BOND
     1    1    6 ar
     2    1    2 ar
     3    1   25 1
     4    2    3 ar
     5    2   26 1
     6    3    4 ar
     7    3   24 1
     8    4    5 ar
     9    4   27 1
    10    5    6 ar
    11    5   28 1
    12    6    7 1
    13    7    8 2
    14    7   44 1
    15    8    9 1
    16    8   18 1
    17    9   10 1
    18    9   11 1
    19   11   12 1
    20   11   44 2
    21   12   13 1
    22   12   17 1
    23   12   14 1
    24   14   15 1
    25   14   29 1
    26   14   30 1
    27   15   16 1
    28   15   31 1
    29   15   32 1
    30   16   33 1
    31   16   34 1
    32   16   41 1
    33   17   35 1
    34   17   36 1
    35   17   41 1
    36   18   23 ar
    37   18   19 ar
    38   19   20 ar
    39   19   37 1
    40   20   21 ar
    41   20   38 1
    42   21   22 ar
    43   22   23 ar
    44   22   39 1
    45   23   40 1
    46   41   42 1
    47   41   43 1
    48   44   45 1
@<TRIPOS>MOLECULE
ZINC03815693
   44    47     0     0     0
SMALL
USER_CHARGES

@<TRIPOS>ATOM
      1 C1         -1.2218    2.1638    0.0369 C.ar      1 <0>        -0.0580
      2 C2         -1.2313    3.5432    0.0563 C.ar      1 <0>        -0.1452
      3 C3         -0.0376    4.2466    0.0511 C.ar      1 <0>         0.1193
      4 C4          1.1710    3.5691    0.0325 C.ar      1 <0>        -0.1479
      5 C5          1.1910    2.1898    0.0193 C.ar      1 <0>        -0.0806
      6 C6         -0.0078    1.4773    0.0244 C.ar      1 <0>        -0.0501
      7 C7          0.0080   -0.0041    0.0103 C.2       1 <0>         0.0494
      8 C8         -0.8937   -0.8393    0.6455 C.2       1 <0>         0.0676
      9 N1         -0.4904   -2.1247    0.3621 N.2       1 <0>        -0.4569
     10 H1          1.6590   -0.4553   -1.1869 H         1 <0>         0.4317
     11 C9          0.6055   -2.0395   -0.4216 C.2       1 <0>         0.1743
     12 N2          0.8950   -0.7855   -0.6325 N.pl3     1 <0>        -0.5064
     13 C10         1.3761   -3.2133   -0.9688 C.3       1 <0>        -0.0132
     14 H2          1.8988   -2.9138   -1.8772 H         1 <0>         0.1077
     15 C11         2.3927   -3.6880    0.0731 C.3       1 <0>        -0.1329
     16 C12         3.1290   -4.9171   -0.4668 C.3       1 <0>        -0.1446
     17 C13         2.1109   -6.0099   -0.8006 C.3       1 <0>        -0.0062
     18 C14         0.4087   -4.3551   -1.2889 C.3       1 <0>         0.0084
     19 C15        -2.0491   -0.4340    1.4689 C.ar      1 <0>         0.0300
     20 C16        -1.9295    0.5802    2.4286 C.ar      1 <0>        -0.1534
     21 C17        -3.0363    0.9302    3.1720 C.ar      1 <0>         0.1062
     22 N3         -4.1922    0.3175    2.9967 N.ar      1 <0>        -0.4769
     23 C18        -4.3474   -0.6462    2.1082 C.ar      1 <0>         0.1037
     24 C19        -3.2955   -1.0564    1.3174 C.ar      1 <0>        -0.1478
     25 F1         -0.0520    5.5975    0.0640 F         1 <0>        -0.1292
     26 H3         -2.1528    1.6165    0.0364 H         1 <0>         0.1361
     27 H4         -2.1707    4.0756    0.0710 H         1 <0>         0.1459
     28 H5          2.0989    4.1218    0.0285 H         1 <0>         0.1442
     29 H6          2.1335    1.6627    0.0047 H         1 <0>         0.1294
     30 H7          3.1100   -2.8916    0.2714 H         1 <0>         0.0935
     31 H8          1.8740   -3.9491    0.9956 H         1 <0>         0.0936
     32 H9          3.6793   -4.6451   -1.3676 H         1 <0>         0.0899
     33 H10         3.8241   -5.2855    0.2877 H         1 <0>         0.1175
     34 H11         2.6308   -6.8813   -1.1987 H         1 <0>         0.1352
     35 H12         1.5706   -6.2912    0.1033 H         1 <0>         0.1332
     36 H13        -0.1242   -4.6443   -0.3831 H         1 <0>         0.1466
     37 H14        -0.3072   -4.0243   -2.0414 H         1 <0>         0.1359
     38 H15        -0.9856    1.0827    2.5806 H         1 <0>         0.1350
     39 H16        -2.9555    1.7138    3.9107 H         1 <0>         0.1612
     40 H17        -5.3119   -1.1196    1.9990 H         1 <0>         0.1606
     41 H18        -3.4299   -1.8451    0.5919 H         1 <0>         0.1360
     42 N4          1.1600   -5.5117   -1.8129 N.4       1 <0>        -0.5152
     43 H19         0.5013   -6.2610   -2.0557 H         1 <0>         0.4413
     44 H20         1.6782   -5.2263   -2.6520 H         1 <0>         0.4310
@<TRIPOS>BOND
     1    1    6 ar
     2    1    2 ar
     3    1   26 1
     4    2    3 ar
     5    2   27 1
     6    3    4 ar
     7    3   25 1
     8    4    5 ar
     9    4   28 1
    10    5    6 ar
    11    5   29 1
    12    6    7 1
    13    7   12 1
    14    7    8 2
    15    8    9 1
    16    8   19 1
    17    9   11 2
    18   10   12 1
    19   11   13 1
    20   11   12 1
    21   13   14 1
    22   13   18 1
    23   13   15 1
    24   15   16 1
    25   15   30 1
    26   15   31 1
    27   16   17 1
    28   16   32 1
    29   16   33 1
    30   17   34 1
    31   17   35 1
    32   17   42 1
    33   18   36 1
    34   18   37 1
    35   18   42 1
    36   19   24 ar
    37   19   20 ar
    38   20   21 ar
    39   20   38 1
    40   21   22 ar
    41   21   39 1
    42   22   23 ar
    43   23   24 ar
    44   23   40 1
    45   24   41 1
    46   42   43 1
    47   42   44 1
@<TRIPOS>MOLECULE
ZINC03815694
   36    39     0     0     0
SMALL
USER_CHARGES

@<TRIPOS>ATOM
      1 C1         -1.2325    2.1608    0.0215 C.ar      1 <0>        -0.0615
      2 C2         -1.2456    3.5402    0.0352 C.ar      1 <0>        -0.1445
      3 C3         -0.0536    4.2466    0.0283 C.ar      1 <0>         0.1091
      4 C4          1.1567    3.5721    0.0128 C.ar      1 <0>        -0.1467
      5 C5          1.1802    2.1928    0.0045 C.ar      1 <0>        -0.0846
      6 C6         -0.0169    1.4773    0.0118 C.ar      1 <0>        -0.0333
      7 C7          0.0028   -0.0041    0.0029 C.2       1 <0>         0.0271
      8 C8         -0.8905   -0.8392    0.6500 C.2       1 <0>         0.0625
      9 N1         -0.4902   -2.1247    0.3623 N.2       1 <0>        -0.4590
     10 H1          1.6633   -0.4553   -1.1808 H         1 <0>         0.4287
     11 C9          0.6062   -2.0395   -0.4207 C.2       1 <0>         0.2102
     12 N2          0.8956   -0.7855   -0.6316 N.pl3     1 <0>        -0.5045
     13 C10         1.3773   -3.2132   -0.9671 C.3       1 <0>         0.1381
     14 C11         2.7852   -3.4512   -0.4175 C.3       1 <0>        -0.1760
     15 C12         2.5987   -2.9123   -1.8380 C.3       1 <0>        -0.1576
     16 O1          0.5962   -4.3625   -1.3006 O.3       1 <0>        -0.5095
     17 C13        -2.0411   -0.4339    1.4800 C.ar      1 <0>         0.0399
     18 C14        -1.9158    0.5798    2.4395 C.ar      1 <0>        -0.1544
     19 C15        -3.0183    0.9298    3.1891 C.ar      1 <0>         0.1016
     20 N3         -4.1755    0.3178    3.0199 N.ar      1 <0>        -0.4823
     21 C16        -4.3360   -0.6452    2.1315 C.ar      1 <0>         0.1015
     22 C17        -3.2886   -1.0557    1.3351 C.ar      1 <0>        -0.1465
     23 F1         -0.0714    5.5975    0.0364 F         1 <0>        -0.1339
     24 H2         -2.1621    1.6111    0.0224 H         1 <0>         0.1359
     25 H3         -2.1864    4.0704    0.0473 H         1 <0>         0.1432
     26 H4          2.0832    4.1271    0.0067 H         1 <0>         0.1418
     27 H5          2.1240    1.6680   -0.0080 H         1 <0>         0.1302
     28 H6          3.1536   -2.7588    0.3394 H         1 <0>         0.1022
     29 H7          3.1157   -4.4844   -0.3105 H         1 <0>         0.1166
     30 H8          2.8067   -3.5912   -2.6651 H         1 <0>         0.1190
     31 H9          2.8445   -1.8654   -2.0157 H         1 <0>         0.0990
     32 H10        -0.1618   -4.5056   -0.7174 H         1 <0>         0.3970
     33 H11        -0.9709    1.0818    2.5866 H         1 <0>         0.1341
     34 H12        -2.9330    1.7124    3.9285 H         1 <0>         0.1585
     35 H13        -5.3014   -1.1182    2.0274 H         1 <0>         0.1595
     36 H14        -3.4273   -1.8443    0.6102 H         1 <0>         0.1387
@<TRIPOS>BOND
     1    1    6 ar
     2    1    2 ar
     3    1   24 1
     4    2    3 ar
     5    2   25 1
     6    3    4 ar
     7    3   23 1
     8    4    5 ar
     9    4   26 1
    10    5    6 ar
    11    5   27 1
    12    6    7 1
    13    7   12 1
    14    7    8 2
    15    8    9 1
    16    8   17 1
    17    9   11 2
    18   10   12 1
    19   11   13 1
    20   11   12 1
    21   13   15 1
    22   13   14 1
    23   13   16 1
    24   14   15 1
    25   14   28 1
    26   14   29 1
    27   15   30 1
    28   15   31 1
    29   16   32 1
    30   17   22 ar
    31   17   18 ar
    32   18   19 ar
    33   18   33 1
    34   19   20 ar
    35   19   34 1
    36   20   21 ar
    37   21   22 ar
    38   21   35 1
    39   22   36 1
@<TRIPOS>MOLECULE
ZINC03815694
   36    39     0     0     0
SMALL
USER_CHARGES

@<TRIPOS>ATOM
      1 C1         -1.2325    2.1608    0.0215 C.ar      1 <0>        -0.0615
      2 C2         -1.2456    3.5402    0.0352 C.ar      1 <0>        -0.1445
      3 C3         -0.0536    4.2466    0.0283 C.ar      1 <0>         0.1091
      4 C4          1.1567    3.5721    0.0128 C.ar      1 <0>        -0.1467
      5 C5          1.1802    2.1928    0.0045 C.ar      1 <0>        -0.0846
      6 C6         -0.0169    1.4773    0.0118 C.ar      1 <0>        -0.0333
      7 C7          0.0028   -0.0041    0.0029 C.2       1 <0>         0.0271
      8 C8         -0.8905   -0.8392    0.6500 C.2       1 <0>         0.0625
      9 N1         -0.4902   -2.1247    0.3623 N.2       1 <0>        -0.4590
     10 H1          1.6633   -0.4553   -1.1808 H         1 <0>         0.4287
     11 C9          0.6062   -2.0395   -0.4207 C.2       1 <0>         0.2102
     12 N2          0.8956   -0.7855   -0.6316 N.pl3     1 <0>        -0.5045
     13 C10         1.3773   -3.2132   -0.9671 C.3       1 <0>         0.1381
     14 C11         2.7852   -3.4512   -0.4175 C.3       1 <0>        -0.1760
     15 C12         2.5987   -2.9123   -1.8380 C.3       1 <0>        -0.1576
     16 O1          0.5962   -4.3625   -1.3006 O.3       1 <0>        -0.5095
     17 C13        -2.0411   -0.4339    1.4800 C.ar      1 <0>         0.0399
     18 C14        -1.9158    0.5798    2.4395 C.ar      1 <0>        -0.1544
     19 C15        -3.0183    0.9298    3.1891 C.ar      1 <0>         0.1016
     20 N3         -4.1755    0.3178    3.0199 N.ar      1 <0>        -0.4823
     21 C16        -4.3360   -0.6452    2.1315 C.ar      1 <0>         0.1015
     22 C17        -3.2886   -1.0557    1.3351 C.ar      1 <0>        -0.1465
     23 F1         -0.0714    5.5975    0.0364 F         1 <0>        -0.1339
     24 H2         -2.1621    1.6111    0.0224 H         1 <0>         0.1359
     25 H3         -2.1864    4.0704    0.0473 H         1 <0>         0.1432
     26 H4          2.0832    4.1271    0.0067 H         1 <0>         0.1418
     27 H5          2.1240    1.6680   -0.0080 H         1 <0>         0.1302
     28 H6          3.1536   -2.7588    0.3394 H         1 <0>         0.1022
     29 H7          3.1157   -4.4844   -0.3105 H         1 <0>         0.1166
     30 H8          2.8067   -3.5912   -2.6651 H         1 <0>         0.1190
     31 H9          2.8445   -1.8654   -2.0157 H         1 <0>         0.0990
     32 H10        -0.1618   -4.5056   -0.7174 H         1 <0>         0.3970
     33 H11        -0.9709    1.0818    2.5866 H         1 <0>         0.1341
     34 H12        -2.9330    1.7124    3.9285 H         1 <0>         0.1585
     35 H13        -5.3014   -1.1182    2.0274 H         1 <0>         0.1595
     36 H14        -3.4273   -1.8443    0.6102 H         1 <0>         0.1387
@<TRIPOS>BOND
     1    1    6 ar
     2    1    2 ar
     3    1   24 1
     4    2    3 ar
     5    2   25 1
     6    3    4 ar
     7    3   23 1
     8    4    5 ar
     9    4   26 1
    10    5    6 ar
    11    5   27 1
    12    6    7 1
    13    7   12 1
    14    7    8 2
    15    8    9 1
    16    8   17 1
    17    9   11 2
    18   10   12 1
    19   11   13 1
    20   11   12 1
    21   13   15 1
    22   13   14 1
    23   13   16 1
    24   14   15 1
    25   14   28 1
    26   14   29 1
    27   15   30 1
    28   15   31 1
    29   16   32 1
    30   17   22 ar
    31   17   18 ar
    32   18   19 ar
    33   18   33 1
    34   19   20 ar
    35   19   34 1
    36   20   21 ar
    37   21   22 ar
    38   21   35 1
    39   22   36 1
@<TRIPOS>MOLECULE
ZINC03815694
   37    40     0     0     0
SMALL
USER_CHARGES

@<TRIPOS>ATOM
      1 C1         -1.2339    2.1604    0.0196 C.ar      1 <0>        -0.0446
      2 C2         -1.2474    3.5398    0.0326 C.ar      1 <0>        -0.1455
      3 C3         -0.0556    4.2466    0.0255 C.ar      1 <0>         0.1451
      4 C4          1.1549    3.5725    0.0103 C.ar      1 <0>        -0.1463
      5 C5          1.1788    2.1932    0.0026 C.ar      1 <0>        -0.0619
      6 C6         -0.0180    1.4773    0.0102 C.ar      1 <0>        -0.0860
      7 C7          0.0021   -0.0041    0.0020 C.2       1 <0>         0.1173
      8 C8         -0.8905   -0.8392    0.6500 C.2       1 <0>         0.1172
      9 N1         -0.4902   -2.1247    0.3623 N.pl3     1 <0>        -0.5006
     10 H1         -0.9304   -2.9662    0.6755 H         1 <0>         0.4720
     11 C9          0.6062   -2.0395   -0.4207 C.cat     1 <0>         0.3400
     12 C10         1.3773   -3.2132   -0.9671 C.3       1 <0>         0.0736
     13 C11         2.7852   -3.4512   -0.4175 C.3       1 <0>        -0.1517
     14 C12         2.5987   -2.9123   -1.8380 C.3       1 <0>        -0.1295
     15 O1          0.5962   -4.3625   -1.3006 O.3       1 <0>        -0.4828
     16 C13        -2.0411   -0.4339    1.4800 C.ar      1 <0>        -0.0228
     17 C14        -1.9158    0.5798    2.4395 C.ar      1 <0>        -0.1312
     18 C15        -3.0183    0.9298    3.1891 C.ar      1 <0>         0.1178
     19 N2         -4.1755    0.3178    3.0199 N.ar      1 <0>        -0.4562
     20 C16        -4.3360   -0.6452    2.1315 C.ar      1 <0>         0.1180
     21 C17        -3.2886   -1.0557    1.3351 C.ar      1 <0>        -0.1480
     22 F1         -0.0739    5.5975    0.0330 F         1 <0>        -0.1195
     23 H2         -2.1633    1.6104    0.0207 H         1 <0>         0.1405
     24 H3         -2.1884    4.0697    0.0445 H         1 <0>         0.1539
     25 H4          2.0812    4.1278    0.0040 H         1 <0>         0.1538
     26 H5          2.1228    1.6687   -0.0096 H         1 <0>         0.1375
     27 H6          3.1536   -2.7588    0.3394 H         1 <0>         0.1168
     28 H7          3.1157   -4.4844   -0.3105 H         1 <0>         0.1370
     29 H8          2.8067   -3.5912   -2.6651 H         1 <0>         0.1395
     30 H9          2.8445   -1.8654   -2.0157 H         1 <0>         0.1129
     31 H10        -0.1618   -4.5056   -0.7174 H         1 <0>         0.3870
     32 H11        -0.9709    1.0818    2.5866 H         1 <0>         0.1469
     33 H12        -2.9330    1.7124    3.9285 H         1 <0>         0.1730
     34 H13        -5.3014   -1.1182    2.0274 H         1 <0>         0.1724
     35 H14        -3.4273   -1.8443    0.6102 H         1 <0>         0.1425
     36 N3          0.8957   -0.7853   -0.6325 N.pl3     1 <0>        -0.4675
     37 H15         1.6838   -0.4463   -1.1965 H         1 <0>         0.4793
@<TRIPOS>BOND
     1    1    6 ar
     2    1    2 ar
     3    1   23 1
     4    2    3 ar
     5    2   24 1
     6    3    4 ar
     7    3   22 1
     8    4    5 ar
     9    4   25 1
    10    5    6 ar
    11    5   26 1
    12    6    7 1
    13    7    8 2
    14    7   36 1
    15    8    9 1
    16    8   16 1
    17    9   10 1
    18    9   11 1
    19   11   12 1
    20   11   36 2
    21   12   14 1
    22   12   13 1
    23   12   15 1
    24   13   14 1
    25   13   27 1
    26   13   28 1
    27   14   29 1
    28   14   30 1
    29   15   31 1
    30   16   21 ar
    31   16   17 ar
    32   17   18 ar
    33   17   32 1
    34   18   19 ar
    35   18   33 1
    36   19   20 ar
    37   20   21 ar
    38   20   34 1
    39   21   35 1
    40   36   37 1
@<TRIPOS>MOLECULE
ZINC03815695
   39    42     0     0     0
SMALL
USER_CHARGES

@<TRIPOS>ATOM
      1 C1          0.0337    0.3994   -0.3383 C.ar      1 <0>        -0.0587
      2 C2         -1.2577    0.8842   -0.3480 C.ar      1 <0>        -0.1584
      3 C3         -1.4885    2.2486   -0.2745 C.ar      1 <0>         0.1029
      4 C4         -0.4242    3.1330   -0.2017 C.ar      1 <0>        -0.1592
      5 C5          0.8709    2.6581   -0.1972 C.ar      1 <0>        -0.0396
      6 C6          1.1082    1.2855   -0.2656 C.ar      1 <0>        -0.0109
      7 C7          2.4973    0.7703   -0.2615 C.2       1 <0>         0.1091
      8 C8          3.5979    1.3749   -0.8443 C.2       1 <0>         0.0020
      9 N1          4.6688    0.5461   -0.5904 N.pl3     1 <0>        -0.4383
     10 C9          4.2052   -0.5050    0.1164 C.2       1 <0>         0.2170
     11 N2          2.9230   -0.3680    0.3139 N.2       1 <0>        -0.4817
     12 C10         6.0549    0.7656   -1.0110 C.3       1 <0>         0.1327
     13 C11         6.8948   -0.4646   -0.6617 C.3       1 <0>        -0.1862
     14 C12         8.0106   -0.2885    0.3702 C.3       1 <0>        -0.1699
     15 C13         8.3580   -0.4711   -1.1086 C.3       1 <0>        -0.1620
     16 C14         3.6196    2.6479   -1.5868 C.ar      1 <0>         0.2990
     17 C15         4.7832    3.4285   -1.6287 C.ar      1 <0>        -0.2962
     18 C16         4.7548    4.6134   -2.3379 C.ar      1 <0>         0.2038
     19 N3          3.6384    4.9751   -2.9529 N.ar      1 <0>        -0.5734
     20 C17         2.5515    4.2188   -2.8976 C.ar      1 <0>         0.5765
     21 N4          2.5336    3.0735   -2.2347 N.ar      1 <0>        -0.5494
     22 N5          1.4068    4.6347   -3.5553 N.pl3     1 <0>        -0.8171
     23 F1         -2.7552    2.7184   -0.2791 F         1 <0>        -0.1407
     24 H1          0.2124   -0.6644   -0.3914 H         1 <0>         0.1363
     25 H2         -2.0904    0.1991   -0.4091 H         1 <0>         0.1368
     26 H3         -0.6089    4.1957   -0.1488 H         1 <0>         0.1324
     27 H4          1.6998    3.3482   -0.1411 H         1 <0>         0.1198
     28 H5          4.8046   -1.3315    0.4685 H         1 <0>         0.2138
     29 H6          6.0858    0.9329   -2.0876 H         1 <0>         0.0953
     30 H7          6.4570    1.6382   -0.4960 H         1 <0>         0.0935
     31 H8          6.3618   -1.4154   -0.6698 H         1 <0>         0.1194
     32 H9          8.1464    0.7039    0.8002 H         1 <0>         0.0997
     33 H10         8.2119   -1.1234    1.0413 H         1 <0>         0.1028
     34 H11         8.7878   -1.4263   -1.4103 H         1 <0>         0.1040
     35 H12         8.7223    0.4010   -1.6515 H         1 <0>         0.1005
     36 H13         5.6805    3.1110   -1.1183 H         1 <0>         0.1406
     37 H14         5.6337    5.2390   -2.3904 H         1 <0>         0.1711
     38 H15         1.4072    5.4701   -4.0484 H         1 <0>         0.4166
     39 H16         0.6043    4.0909   -3.5232 H         1 <0>         0.4162
@<TRIPOS>BOND
     1    1    6 ar
     2    1    2 ar
     3    1   24 1
     4    2    3 ar
     5    2   25 1
     6    3    4 ar
     7    3   23 1
     8    4    5 ar
     9    4   26 1
    10    5    6 ar
    11    5   27 1
    12    6    7 1
    13    7   11 1
    14    7    8 2
    15    8    9 1
    16    8   16 1
    17    9   10 1
    18    9   12 1
    19   10   11 2
    20   10   28 1
    21   12   13 1
    22   12   29 1
    23   12   30 1
    24   13   15 1
    25   13   14 1
    26   13   31 1
    27   14   15 1
    28   14   32 1
    29   14   33 1
    30   15   34 1
    31   15   35 1
    32   16   21 ar
    33   16   17 ar
    34   17   18 ar
    35   17   36 1
    36   18   19 ar
    37   18   37 1
    38   19   20 ar
    39   20   21 ar
    40   20   22 1
    41   22   38 1
    42   22   39 1
@<TRIPOS>MOLECULE
ZINC03815695
   40    43     0     0     0
SMALL
USER_CHARGES

@<TRIPOS>ATOM
      1 C1          0.0337    0.3994   -0.3383 C.ar      1 <0>        -0.0597
      2 C2         -1.2577    0.8842   -0.3480 C.ar      1 <0>        -0.1523
      3 C3         -1.4885    2.2486   -0.2745 C.ar      1 <0>         0.1423
      4 C4         -0.4242    3.1330   -0.2017 C.ar      1 <0>        -0.1546
      5 C5          0.8709    2.6581   -0.1972 C.ar      1 <0>        -0.0135
      6 C6          1.1082    1.2855   -0.2656 C.ar      1 <0>        -0.0756
      7 C7          2.4973    0.7703   -0.2615 C.2       1 <0>         0.1445
      8 C8          3.5979    1.3749   -0.8443 C.2       1 <0>         0.0887
      9 N1          4.6688    0.5461   -0.5904 N.pl3     1 <0>        -0.3867
     10 C9          4.2052   -0.5050    0.1164 C.cat     1 <0>         0.3017
     11 C10         6.0549    0.7656   -1.0110 C.3       1 <0>         0.1200
     12 C11         6.8948   -0.4646   -0.6617 C.3       1 <0>        -0.2110
     13 C12         8.0106   -0.2885    0.3702 C.3       1 <0>        -0.1663
     14 C13         8.3580   -0.4711   -1.1086 C.3       1 <0>        -0.1484
     15 C14         3.6196    2.6479   -1.5868 C.ar      1 <0>         0.2610
     16 C15         4.7832    3.4285   -1.6287 C.ar      1 <0>        -0.2790
     17 C16         4.7548    4.6134   -2.3379 C.ar      1 <0>         0.2189
     18 N2          3.6384    4.9751   -2.9529 N.ar      1 <0>        -0.5503
     19 C17         2.5515    4.2188   -2.8976 C.ar      1 <0>         0.5854
     20 N3          2.5336    3.0735   -2.2347 N.ar      1 <0>        -0.5462
     21 N4          1.4068    4.6347   -3.5553 N.pl3     1 <0>        -0.8074
     22 F1         -2.7552    2.7184   -0.2791 F         1 <0>        -0.1234
     23 H1          0.2124   -0.6644   -0.3914 H         1 <0>         0.1361
     24 H2         -2.0904    0.1991   -0.4091 H         1 <0>         0.1504
     25 H3         -0.6089    4.1957   -0.1488 H         1 <0>         0.1473
     26 H4          1.6998    3.3482   -0.1411 H         1 <0>         0.1304
     27 H5          4.8046   -1.3315    0.4685 H         1 <0>         0.2649
     28 H6          6.0858    0.9329   -2.0876 H         1 <0>         0.1255
     29 H7          6.4570    1.6382   -0.4960 H         1 <0>         0.1238
     30 H8          6.3618   -1.4154   -0.6698 H         1 <0>         0.1220
     31 H9          8.1464    0.7039    0.8002 H         1 <0>         0.1062
     32 H10         8.2119   -1.1234    1.0413 H         1 <0>         0.1102
     33 H11         8.7878   -1.4263   -1.4103 H         1 <0>         0.1128
     34 H12         8.7223    0.4010   -1.6515 H         1 <0>         0.1082
     35 H13         5.6805    3.1110   -1.1183 H         1 <0>         0.1472
     36 H14         5.6337    5.2390   -2.3904 H         1 <0>         0.1834
     37 H15         1.4072    5.4701   -4.0484 H         1 <0>         0.4244
     38 H16         0.6043    4.0909   -3.5232 H         1 <0>         0.4193
     39 N5          2.9226   -0.3685    0.3143 N.pl3     1 <0>        -0.4828
     40 H17         2.3292   -1.0288    0.8302 H         1 <0>         0.4824
@<TRIPOS>BOND
     1    1    6 ar
     2    1    2 ar
     3    1   23 1
     4    2    3 ar
     5    2   24 1
     6    3    4 ar
     7    3   22 1
     8    4    5 ar
     9    4   25 1
    10    5    6 ar
    11    5   26 1
    12    6    7 1
    13    7    8 2
    14    7   39 1
    15    8    9 1
    16    8   15 1
    17    9   10 1
    18    9   11 1
    19   10   27 1
    20   10   39 2
    21   11   12 1
    22   11   28 1
    23   11   29 1
    24   12   14 1
    25   12   13 1
    26   12   30 1
    27   13   14 1
    28   13   31 1
    29   13   32 1
    30   14   33 1
    31   14   34 1
    32   15   20 ar
    33   15   16 ar
    34   16   17 ar
    35   16   35 1
    36   17   18 ar
    37   17   36 1
    38   18   19 ar
    39   19   20 ar
    40   19   21 1
    41   21   37 1
    42   21   38 1
    43   39   40 1
@<TRIPOS>MOLECULE
ZINC03815696
   38    41     0     0     0
SMALL
USER_CHARGES

@<TRIPOS>ATOM
      1 C1          7.1089   -5.6996    1.8116 C.ar      1 <0>        -0.1052
      2 C2          5.7841   -5.4516    2.1242 C.ar      1 <0>        -0.1144
      3 C3          5.1621   -4.3143    1.6520 C.ar      1 <0>        -0.1113
      4 C4          5.8722   -3.4131    0.8573 C.ar      1 <0>        -0.0243
      5 C5          7.2067   -3.6722    0.5409 C.ar      1 <0>        -0.0731
      6 C6          7.8187   -4.8101    1.0247 C.ar      1 <0>        -0.1160
      7 C7          5.2119   -2.1923    0.3478 C.2       1 <0>         0.2470
      8 N1          5.8010   -1.2428   -0.4345 N.2       1 <0>        -0.4493
      9 H1          3.3129   -2.3751    1.1235 H         1 <0>         0.4297
     10 C8          4.8502   -0.2811   -0.6915 C.2       1 <0>         0.0686
     11 C9          3.6985   -0.6857   -0.0364 C.2       1 <0>         0.0195
     12 N2          3.9644   -1.8494    0.5765 N.pl3     1 <0>        -0.5074
     13 C10         2.4035    0.0342   -0.0207 C.ar      1 <0>        -0.0011
     14 C11         2.3781    1.4287   -0.0129 C.ar      1 <0>        -0.0767
     15 C12         1.1699    2.0945    0.0021 C.ar      1 <0>        -0.0882
     16 C13        -0.0167    1.3813    0.0096 C.ar      1 <0>        -0.0272
     17 C14         0.0021   -0.0041    0.0020 C.ar      1 <0>        -0.0250
     18 C15         1.2062   -0.6802   -0.0131 C.ar      1 <0>        -0.0971
     19 Cl1        -1.4901   -0.8912    0.0109 Cl        1 <0>        -0.0393
     20 Cl2        -1.5334    2.2257    0.0214 Cl        1 <0>        -0.0390
     21 C16         5.0239    0.9394   -1.5013 C.ar      1 <0>         0.0381
     22 C17         4.0585    1.3233   -2.4423 C.ar      1 <0>        -0.1550
     23 C18         4.2594    2.4745   -3.1733 C.ar      1 <0>         0.1022
     24 N3          5.3462    3.2043   -3.0042 N.ar      1 <0>        -0.4816
     25 C19         6.2826    2.8765   -2.1335 C.ar      1 <0>         0.1018
     26 C20         6.1618    1.7449   -1.3559 C.ar      1 <0>        -0.1452
     27 H2          7.5912   -6.5914    2.1838 H         1 <0>         0.1284
     28 H3          5.2357   -6.1499    2.7390 H         1 <0>         0.1298
     29 H4          4.1280   -4.1217    1.8970 H         1 <0>         0.1175
     30 H5          7.7603   -2.9813   -0.0776 H         1 <0>         0.1384
     31 H6          8.8527   -5.0092    0.7849 H         1 <0>         0.1316
     32 H7          3.3029    1.9864   -0.0191 H         1 <0>         0.1420
     33 H8          1.1497    3.1743    0.0078 H         1 <0>         0.1505
     34 H9          1.2203   -1.7601   -0.0194 H         1 <0>         0.1398
     35 H10         3.1692    0.7285   -2.5895 H         1 <0>         0.1338
     36 H11         3.5195    2.7811   -3.8978 H         1 <0>         0.1587
     37 H12         7.1557    3.5036   -2.0292 H         1 <0>         0.1596
     38 H13         6.9318    1.4832   -0.6453 H         1 <0>         0.1392
@<TRIPOS>BOND
     1    1    6 ar
     2    1    2 ar
     3    1   27 1
     4    2    3 ar
     5    2   28 1
     6    3    4 ar
     7    3   29 1
     8    4    5 ar
     9    4    7 1
    10    5    6 ar
    11    5   30 1
    12    6   31 1
    13    7    8 2
    14    7   12 1
    15    8   10 1
    16    9   12 1
    17   10   11 2
    18   10   21 1
    19   11   12 1
    20   11   13 1
    21   13   18 ar
    22   13   14 ar
    23   14   15 ar
    24   14   32 1
    25   15   16 ar
    26   15   33 1
    27   16   17 ar
    28   16   20 1
    29   17   18 ar
    30   17   19 1
    31   18   34 1
    32   21   26 ar
    33   21   22 ar
    34   22   23 ar
    35   22   35 1
    36   23   24 ar
    37   23   36 1
    38   24   25 ar
    39   25   26 ar
    40   25   37 1
    41   26   38 1
@<TRIPOS>MOLECULE
ZINC03815696
   39    42     0     0     0
SMALL
USER_CHARGES

@<TRIPOS>ATOM
      1 C1          7.1089   -5.6996    1.8116 C.ar      1 <0>        -0.0621
      2 C2          5.7841   -5.4516    2.1242 C.ar      1 <0>        -0.1053
      3 C3          5.1621   -4.3143    1.6520 C.ar      1 <0>        -0.0739
      4 C4          5.8722   -3.4131    0.8573 C.ar      1 <0>        -0.0970
      5 C5          7.2067   -3.6722    0.5409 C.ar      1 <0>        -0.0712
      6 C6          7.8187   -4.8101    1.0247 C.ar      1 <0>        -0.1061
      7 C7          5.2119   -2.1923    0.3478 C.cat     1 <0>         0.3993
      8 N1          5.8010   -1.2428   -0.4345 N.pl3     1 <0>        -0.5089
      9 H1          6.7464   -1.2449   -0.7603 H         1 <0>         0.4724
     10 C8          4.8502   -0.2811   -0.6915 C.2       1 <0>         0.1234
     11 C9          3.6985   -0.6857   -0.0364 C.2       1 <0>         0.1064
     12 C10         2.4035    0.0342   -0.0207 C.ar      1 <0>        -0.0505
     13 C11         2.3781    1.4287   -0.0129 C.ar      1 <0>        -0.0623
     14 C12         1.1699    2.0945    0.0021 C.ar      1 <0>        -0.0875
     15 C13        -0.0167    1.3813    0.0096 C.ar      1 <0>        -0.0050
     16 C14         0.0021   -0.0041    0.0020 C.ar      1 <0>        -0.0298
     17 C15         1.2062   -0.6802   -0.0131 C.ar      1 <0>        -0.0773
     18 Cl1        -1.4901   -0.8912    0.0109 Cl        1 <0>        -0.0181
     19 Cl2        -1.5334    2.2257    0.0214 Cl        1 <0>        -0.0145
     20 C16         5.0239    0.9394   -1.5013 C.ar      1 <0>        -0.0228
     21 C17         4.0585    1.3233   -2.4423 C.ar      1 <0>        -0.1325
     22 C18         4.2594    2.4745   -3.1733 C.ar      1 <0>         0.1179
     23 N2          5.3462    3.2043   -3.0042 N.ar      1 <0>        -0.4564
     24 C19         6.2826    2.8765   -2.1335 C.ar      1 <0>         0.1177
     25 C20         6.1618    1.7449   -1.3559 C.ar      1 <0>        -0.1472
     26 H2          7.5912   -6.5914    2.1838 H         1 <0>         0.1460
     27 H3          5.2357   -6.1499    2.7390 H         1 <0>         0.1480
     28 H4          4.1280   -4.1217    1.8970 H         1 <0>         0.1319
     29 H5          7.7603   -2.9813   -0.0776 H         1 <0>         0.1320
     30 H6          8.8527   -5.0092    0.7849 H         1 <0>         0.1477
     31 H7          3.3029    1.9864   -0.0191 H         1 <0>         0.1461
     32 H8          1.1497    3.1743    0.0078 H         1 <0>         0.1600
     33 H9          1.2203   -1.7601   -0.0194 H         1 <0>         0.1462
     34 H10         3.1692    0.7285   -2.5895 H         1 <0>         0.1463
     35 H11         3.5195    2.7811   -3.8978 H         1 <0>         0.1728
     36 H12         7.1557    3.5036   -2.0292 H         1 <0>         0.1721
     37 H13         6.9318    1.4832   -0.6453 H         1 <0>         0.1428
     38 N3          3.9640   -1.8497    0.5768 N.pl3     1 <0>        -0.4789
     39 H14         3.2951   -2.3895    1.1385 H         1 <0>         0.4786
@<TRIPOS>BOND
     1    1    6 ar
     2    1    2 ar
     3    1   26 1
     4    2    3 ar
     5    2   27 1
     6    3    4 ar
     7    3   28 1
     8    4    5 ar
     9    4    7 1
    10    5    6 ar
    11    5   29 1
    12    6   30 1
    13    7    8 1
    14    7   38 2
    15    8    9 1
    16    8   10 1
    17   10   11 2
    18   10   20 1
    19   11   12 1
    20   11   38 1
    21   12   17 ar
    22   12   13 ar
    23   13   14 ar
    24   13   31 1
    25   14   15 ar
    26   14   32 1
    27   15   16 ar
    28   15   19 1
    29   16   17 ar
    30   16   18 1
    31   17   33 1
    32   20   25 ar
    33   20   21 ar
    34   21   22 ar
    35   21   34 1
    36   22   23 ar
    37   22   35 1
    38   23   24 ar
    39   24   25 ar
    40   24   36 1
    41   25   37 1
    42   38   39 1
@<TRIPOS>MOLECULE
ZINC03815696
   38    41     0     0     0
SMALL
USER_CHARGES

@<TRIPOS>ATOM
      1 C1          7.1089   -5.6996    1.8116 C.ar      1 <0>        -0.1052
      2 C2          5.7841   -5.4516    2.1242 C.ar      1 <0>        -0.1144
      3 C3          5.1621   -4.3143    1.6520 C.ar      1 <0>        -0.1113
      4 C4          5.8722   -3.4131    0.8573 C.ar      1 <0>        -0.0243
      5 C5          7.2067   -3.6722    0.5409 C.ar      1 <0>        -0.0731
      6 C6          7.8187   -4.8101    1.0247 C.ar      1 <0>        -0.1160
      7 C7          5.2119   -2.1923    0.3478 C.2       1 <0>         0.2470
      8 N1          5.8010   -1.2428   -0.4345 N.2       1 <0>        -0.4493
      9 H1          3.3129   -2.3751    1.1235 H         1 <0>         0.4297
     10 C8          4.8502   -0.2811   -0.6915 C.2       1 <0>         0.0686
     11 C9          3.6985   -0.6857   -0.0364 C.2       1 <0>         0.0195
     12 N2          3.9644   -1.8494    0.5765 N.pl3     1 <0>        -0.5074
     13 C10         2.4035    0.0342   -0.0207 C.ar      1 <0>        -0.0011
     14 C11         2.3781    1.4287   -0.0129 C.ar      1 <0>        -0.0767
     15 C12         1.1699    2.0945    0.0021 C.ar      1 <0>        -0.0882
     16 C13        -0.0167    1.3813    0.0096 C.ar      1 <0>        -0.0272
     17 C14         0.0021   -0.0041    0.0020 C.ar      1 <0>        -0.0250
     18 C15         1.2062   -0.6802   -0.0131 C.ar      1 <0>        -0.0971
     19 Cl1        -1.4901   -0.8912    0.0109 Cl        1 <0>        -0.0393
     20 Cl2        -1.5334    2.2257    0.0214 Cl        1 <0>        -0.0390
     21 C16         5.0239    0.9394   -1.5013 C.ar      1 <0>         0.0381
     22 C17         4.0585    1.3233   -2.4423 C.ar      1 <0>        -0.1550
     23 C18         4.2594    2.4745   -3.1733 C.ar      1 <0>         0.1022
     24 N3          5.3462    3.2043   -3.0042 N.ar      1 <0>        -0.4816
     25 C19         6.2826    2.8765   -2.1335 C.ar      1 <0>         0.1018
     26 C20         6.1618    1.7449   -1.3559 C.ar      1 <0>        -0.1452
     27 H2          7.5912   -6.5914    2.1838 H         1 <0>         0.1284
     28 H3          5.2357   -6.1499    2.7390 H         1 <0>         0.1298
     29 H4          4.1280   -4.1217    1.8970 H         1 <0>         0.1175
     30 H5          7.7603   -2.9813   -0.0776 H         1 <0>         0.1384
     31 H6          8.8527   -5.0092    0.7849 H         1 <0>         0.1316
     32 H7          3.3029    1.9864   -0.0191 H         1 <0>         0.1420
     33 H8          1.1497    3.1743    0.0078 H         1 <0>         0.1505
     34 H9          1.2203   -1.7601   -0.0194 H         1 <0>         0.1398
     35 H10         3.1692    0.7285   -2.5895 H         1 <0>         0.1338
     36 H11         3.5195    2.7811   -3.8978 H         1 <0>         0.1587
     37 H12         7.1557    3.5036   -2.0292 H         1 <0>         0.1596
     38 H13         6.9318    1.4832   -0.6453 H         1 <0>         0.1392
@<TRIPOS>BOND
     1    1    6 ar
     2    1    2 ar
     3    1   27 1
     4    2    3 ar
     5    2   28 1
     6    3    4 ar
     7    3   29 1
     8    4    5 ar
     9    4    7 1
    10    5    6 ar
    11    5   30 1
    12    6   31 1
    13    7    8 2
    14    7   12 1
    15    8   10 1
    16    9   12 1
    17   10   11 2
    18   10   21 1
    19   11   12 1
    20   11   13 1
    21   13   18 ar
    22   13   14 ar
    23   14   15 ar
    24   14   32 1
    25   15   16 ar
    26   15   33 1
    27   16   17 ar
    28   16   20 1
    29   17   18 ar
    30   17   19 1
    31   18   34 1
    32   21   26 ar
    33   21   22 ar
    34   22   23 ar
    35   22   35 1
    36   23   24 ar
    37   23   36 1
    38   24   25 ar
    39   25   26 ar
    40   25   37 1
    41   26   38 1
@<TRIPOS>MOLECULE
ZINC03815699
   35    38     0     0     0
SMALL
USER_CHARGES

@<TRIPOS>ATOM
      1 C1         -2.6433    4.3820   -2.8812 C.ar      1 <0>        -0.1055
      2 C2         -1.7017    4.7608   -1.9460 C.ar      1 <0>        -0.0860
      3 C3         -0.5515    3.9929   -1.7676 C.ar      1 <0>         0.0081
      4 C4         -0.3569    2.8482   -2.5401 C.ar      1 <0>        -0.0949
      5 C5         -1.3081    2.4763   -3.4694 C.ar      1 <0>        -0.0331
      6 C6         -2.4484    3.2431   -3.6412 C.ar      1 <0>        -0.1065
      7 Cl1        -1.0713    1.0486   -4.4281 Cl        1 <0>        -0.0662
      8 C7          0.4629    4.3950   -0.7654 C.2       1 <0>         0.0774
      9 C8          1.2302    3.5452    0.0089 C.2       1 <0>         0.0360
     10 N1          2.0344    4.3536    0.7855 N.pl3     1 <0>        -0.4655
     11 C9          1.7381    5.6325    0.4789 C.2       1 <0>         0.2060
     12 N2          0.8046    5.6532   -0.4395 N.2       1 <0>        -0.4629
     13 C10         2.5917    6.5724    1.3091 C.3       1 <0>        -0.0432
     14 C11         3.1324    5.6854    2.4528 C.3       1 <0>        -0.1290
     15 C12         3.0845    4.2816    1.8121 C.3       1 <0>         0.0983
     16 C13         1.1998    2.0698    0.0017 C.ar      1 <0>         0.0283
     17 C14        -0.0166    1.3742    0.0096 C.ar      1 <0>        -0.1467
     18 C15         0.0021   -0.0041    0.0020 C.ar      1 <0>         0.1088
     19 N3          1.1435   -0.6667   -0.0129 N.ar      1 <0>        -0.4797
     20 C16         2.3113   -0.0515   -0.0207 C.ar      1 <0>         0.1065
     21 C17         2.3867    1.3249   -0.0136 C.ar      1 <0>        -0.1663
     22 H1         -3.5342    4.9765   -3.0201 H         1 <0>         0.1368
     23 H2         -1.8556    5.6503   -1.3530 H         1 <0>         0.1349
     24 H3          0.5340    2.2519   -2.4091 H         1 <0>         0.1295
     25 H4         -3.1881    2.9509   -4.3718 H         1 <0>         0.1355
     26 H5          1.9850    7.3842    1.7105 H         1 <0>         0.1030
     27 H6          3.4136    6.9703    0.7139 H         1 <0>         0.1015
     28 H7          2.4835    5.7375    3.3270 H         1 <0>         0.0908
     29 H8          4.1548    5.9617    2.7107 H         1 <0>         0.1069
     30 H9          2.8280    3.5334    2.5621 H         1 <0>         0.0934
     31 H10         4.0440    4.0419    1.3539 H         1 <0>         0.0945
     32 H11        -0.9544    1.9098    0.0170 H         1 <0>         0.1380
     33 H12        -0.9302   -0.5493    0.0080 H         1 <0>         0.1613
     34 H13         3.2203   -0.6345   -0.0326 H         1 <0>         0.1595
     35 H14         3.3457    1.8215   -0.0201 H         1 <0>         0.1304
@<TRIPOS>BOND
     1    1    6 ar
     2    1    2 ar
     3    1   22 1
     4    2    3 ar
     5    2   23 1
     6    3    4 ar
     7    3    8 1
     8    4    5 ar
     9    4   24 1
    10    5    6 ar
    11    5    7 1
    12    6   25 1
    13    8   12 1
    14    8    9 2
    15    9   10 1
    16    9   16 1
    17   10   15 1
    18   10   11 1
    19   11   12 2
    20   11   13 1
    21   13   14 1
    22   13   26 1
    23   13   27 1
    24   14   15 1
    25   14   28 1
    26   14   29 1
    27   15   30 1
    28   15   31 1
    29   16   21 ar
    30   16   17 ar
    31   17   18 ar
    32   17   32 1
    33   18   19 ar
    34   18   33 1
    35   19   20 ar
    36   20   21 ar
    37   20   34 1
    38   21   35 1
@<TRIPOS>MOLECULE
ZINC03815699
   36    39     0     0     0
SMALL
USER_CHARGES

@<TRIPOS>ATOM
      1 C1         -2.6433    4.3820   -2.8812 C.ar      1 <0>        -0.0945
      2 C2         -1.7017    4.7608   -1.9460 C.ar      1 <0>        -0.0915
      3 C3         -0.5515    3.9929   -1.7676 C.ar      1 <0>        -0.0529
      4 C4         -0.3569    2.8482   -2.5401 C.ar      1 <0>        -0.0732
      5 C5         -1.3081    2.4763   -3.4694 C.ar      1 <0>        -0.0309
      6 C6         -2.4484    3.2431   -3.6412 C.ar      1 <0>        -0.0757
      7 Cl1        -1.0713    1.0486   -4.4281 Cl        1 <0>        -0.0376
      8 C7          0.4629    4.3950   -0.7654 C.2       1 <0>         0.1114
      9 C8          1.2302    3.5452    0.0089 C.2       1 <0>         0.1259
     10 N1          2.0344    4.3536    0.7855 N.pl3     1 <0>        -0.4137
     11 C9          1.7381    5.6325    0.4789 C.cat     1 <0>         0.2915
     12 C10         2.5917    6.5724    1.3091 C.3       1 <0>        -0.0635
     13 C11         3.1324    5.6854    2.4528 C.3       1 <0>        -0.1280
     14 C12         3.0845    4.2816    1.8121 C.3       1 <0>         0.0837
     15 C13         1.1998    2.0698    0.0017 C.ar      1 <0>        -0.0188
     16 C14        -0.0166    1.3742    0.0096 C.ar      1 <0>        -0.1339
     17 C15         0.0021   -0.0041    0.0020 C.ar      1 <0>         0.1184
     18 N2          1.1435   -0.6667   -0.0129 N.ar      1 <0>        -0.4572
     19 C16         2.3113   -0.0515   -0.0207 C.ar      1 <0>         0.1169
     20 C17         2.3867    1.3249   -0.0136 C.ar      1 <0>        -0.1479
     21 H1         -3.5342    4.9765   -3.0201 H         1 <0>         0.1499
     22 H2         -1.8556    5.6503   -1.3530 H         1 <0>         0.1339
     23 H3          0.5340    2.2519   -2.4091 H         1 <0>         0.1398
     24 H4         -3.1881    2.9509   -4.3718 H         1 <0>         0.1495
     25 H5          1.9850    7.3842    1.7105 H         1 <0>         0.1320
     26 H6          3.4136    6.9703    0.7139 H         1 <0>         0.1362
     27 H7          2.4835    5.7375    3.3270 H         1 <0>         0.1089
     28 H8          4.1548    5.9617    2.7107 H         1 <0>         0.1322
     29 H9          2.8280    3.5334    2.5621 H         1 <0>         0.1253
     30 H10         4.0440    4.0419    1.3539 H         1 <0>         0.1261
     31 H11        -0.9544    1.9098    0.0170 H         1 <0>         0.1445
     32 H12        -0.9302   -0.5493    0.0080 H         1 <0>         0.1717
     33 H13         3.2203   -0.6345   -0.0326 H         1 <0>         0.1710
     34 H14         3.3457    1.8215   -0.0201 H         1 <0>         0.1389
     35 N3          0.8041    5.6542   -0.4400 N.pl3     1 <0>        -0.4661
     36 H15         0.3955    6.5028   -0.8488 H         1 <0>         0.4776
@<TRIPOS>BOND
     1    1    6 ar
     2    1    2 ar
     3    1   21 1
     4    2    3 ar
     5    2   22 1
     6    3    4 ar
     7    3    8 1
     8    4    5 ar
     9    4   23 1
    10    5    6 ar
    11    5    7 1
    12    6   24 1
    13    8    9 2
    14    8   35 1
    15    9   10 1
    16    9   15 1
    17   10   14 1
    18   10   11 1
    19   11   12 1
    20   11   35 2
    21   12   13 1
    22   12   25 1
    23   12   26 1
    24   13   14 1
    25   13   27 1
    26   13   28 1
    27   14   29 1
    28   14   30 1
    29   15   20 ar
    30   15   16 ar
    31   16   17 ar
    32   16   31 1
    33   17   18 ar
    34   17   32 1
    35   18   19 ar
    36   19   20 ar
    37   19   33 1
    38   20   34 1
    39   35   36 1
@<TRIPOS>MOLECULE
ZINC03815700
   43    46     0     0     0
SMALL
USER_CHARGES

@<TRIPOS>ATOM
      1 C1         -7.8787    9.2199    4.4344 C.3       1 <0>        -0.4976
      2 S1         -7.0376    9.9593    3.0073 S.o       1 <0>         1.3328
      3 O1         -6.0083   10.8273    3.4616 O.2       1 <0>        -0.8522
      4 C2         -6.1676    8.6109    2.2796 C.ar      1 <0>        -0.4534
      5 C3         -6.7803    7.8403    1.3074 C.ar      1 <0>        -0.0383
      6 C4         -6.1046    6.7834    0.7333 C.ar      1 <0>        -0.0924
      7 C5         -4.8002    6.4919    1.1355 C.ar      1 <0>         0.0175
      8 C6         -4.1902    7.2694    2.1212 C.ar      1 <0>        -0.1253
      9 C7         -4.8750    8.3270    2.6832 C.ar      1 <0>        -0.0497
     10 C8         -4.0701    5.3608    0.5245 C.2       1 <0>         0.2591
     11 N1         -2.7993    4.9779    0.8391 N.pl3     1 <0>        -0.5514
     12 H1         -2.2016    5.4043    1.5180 H         1 <0>         0.4313
     13 C9         -2.4937    3.8943    0.0467 C.2       1 <0>         0.0338
     14 C10        -3.6155    3.6485   -0.7282 C.2       1 <0>         0.0807
     15 N2         -4.5439    4.5614   -0.4043 N.2       1 <0>        -0.4501
     16 C11        -3.7635    2.5705   -1.7340 C.ar      1 <0>        -0.0214
     17 C12        -2.6707    2.1807   -2.5077 C.ar      1 <0>        -0.0721
     18 C13        -2.8124    1.1736   -3.4398 C.ar      1 <0>        -0.1512
     19 C14        -4.0405    0.5562   -3.6146 C.ar      1 <0>         0.1057
     20 C15        -5.1306    0.9436   -2.8519 C.ar      1 <0>        -0.1527
     21 C16        -4.9976    1.9464   -1.9140 C.ar      1 <0>        -0.0594
     22 F1         -4.1757   -0.4263   -4.5320 F         1 <0>        -0.1371
     23 C17        -1.2259    3.1407    0.0306 C.ar      1 <0>         0.0224
     24 C18        -1.2208    1.7390    0.0173 C.ar      1 <0>        -0.1436
     25 C19        -0.0126    1.0758    0.0080 C.ar      1 <0>         0.1076
     26 N3          1.1269    1.7422    0.0007 N.ar      1 <0>        -0.4785
     27 C20         1.1678    3.0615    0.0074 C.ar      1 <0>         0.1075
     28 C21         0.0079    3.8060    0.0224 C.ar      1 <0>        -0.1658
     29 H2         -7.1385    8.7949    5.1123 H         1 <0>         0.0809
     30 H3         -8.4513    9.9868    4.9560 H         1 <0>         0.1087
     31 H4         -8.5517    8.4337    4.0922 H         1 <0>         0.1130
     32 H5         -7.7897    8.0669    0.9971 H         1 <0>         0.1469
     33 H6         -6.5837    6.1831   -0.0260 H         1 <0>         0.1460
     34 H7         -3.1829    7.0461    2.4403 H         1 <0>         0.1203
     35 H8         -4.4026    8.9321    3.4428 H         1 <0>         0.1321
     36 H9         -1.7141    2.6642   -2.3750 H         1 <0>         0.1293
     37 H10        -1.9659    0.8688   -4.0371 H         1 <0>         0.1387
     38 H11        -6.0860    0.4599   -2.9923 H         1 <0>         0.1401
     39 H12        -5.8479    2.2479   -1.3202 H         1 <0>         0.1390
     40 H13        -2.1492    1.1872    0.0188 H         1 <0>         0.1408
     41 H14         0.0021   -0.0041    0.0020 H         1 <0>         0.1629
     42 H15         2.1234    3.5647    0.0006 H         1 <0>         0.1610
     43 H16         0.0490    4.8852    0.0282 H         1 <0>         0.1340
@<TRIPOS>BOND
     1    1    2 1
     2    1   29 1
     3    1   30 1
     4    1   31 1
     5    2    3 2
     6    2    4 1
     7    4    9 ar
     8    4    5 ar
     9    5    6 ar
    10    5   32 1
    11    6    7 ar
    12    6   33 1
    13    7    8 ar
    14    7   10 1
    15    8    9 ar
    16    8   34 1
    17    9   35 1
    18   10   15 2
    19   10   11 1
    20   11   12 1
    21   11   13 1
    22   13   14 2
    23   13   23 1
    24   14   15 1
    25   14   16 1
    26   16   21 ar
    27   16   17 ar
    28   17   18 ar
    29   17   36 1
    30   18   19 ar
    31   18   37 1
    32   19   20 ar
    33   19   22 1
    34   20   21 ar
    35   20   38 1
    36   21   39 1
    37   23   28 ar
    38   23   24 ar
    39   24   25 ar
    40   24   40 1
    41   25   26 ar
    42   25   41 1
    43   26   27 ar
    44   27   28 ar
    45   27   42 1
    46   28   43 1
@<TRIPOS>MOLECULE
ZINC03815700
   44    47     0     0     0
SMALL
USER_CHARGES

@<TRIPOS>ATOM
      1 C1         -7.8787    9.2199    4.4344 C.3       1 <0>        -0.4958
      2 S1         -7.0376    9.9593    3.0073 S.o       1 <0>         1.3382
      3 O1         -6.0083   10.8273    3.4616 O.2       1 <0>        -0.8355
      4 C2         -6.1676    8.6109    2.2796 C.ar      1 <0>        -0.4187
      5 C3         -6.7803    7.8403    1.3074 C.ar      1 <0>        -0.0303
      6 C4         -6.1046    6.7834    0.7333 C.ar      1 <0>        -0.0918
      7 C5         -4.8002    6.4919    1.1355 C.ar      1 <0>        -0.0606
      8 C6         -4.1902    7.2694    2.1212 C.ar      1 <0>        -0.0865
      9 C7         -4.8750    8.3270    2.6832 C.ar      1 <0>        -0.0453
     10 C8         -4.0701    5.3608    0.5245 C.cat     1 <0>         0.3841
     11 N1         -2.7993    4.9779    0.8391 N.pl3     1 <0>        -0.5048
     12 H1         -2.2016    5.4043    1.5180 H         1 <0>         0.4721
     13 C9         -2.4937    3.8943    0.0467 C.2       1 <0>         0.1174
     14 C10        -3.6155    3.6485   -0.7282 C.2       1 <0>         0.1175
     15 C11        -3.7635    2.5705   -1.7340 C.ar      1 <0>        -0.0845
     16 C12        -2.6707    2.1807   -2.5077 C.ar      1 <0>        -0.0456
     17 C13        -2.8124    1.1736   -3.4398 C.ar      1 <0>        -0.1456
     18 C14        -4.0405    0.5562   -3.6146 C.ar      1 <0>         0.1437
     19 C15        -5.1306    0.9436   -2.8519 C.ar      1 <0>        -0.1464
     20 C16        -4.9976    1.9464   -1.9140 C.ar      1 <0>        -0.0623
     21 F1         -4.1757   -0.4263   -4.5320 F         1 <0>        -0.1201
     22 C17        -1.2259    3.1407    0.0306 C.ar      1 <0>        -0.0220
     23 C18        -1.2208    1.7390    0.0173 C.ar      1 <0>        -0.1317
     24 C19        -0.0126    1.0758    0.0080 C.ar      1 <0>         0.1171
     25 N2          1.1269    1.7422    0.0007 N.ar      1 <0>        -0.4569
     26 C20         1.1678    3.0615    0.0074 C.ar      1 <0>         0.1176
     27 C21         0.0079    3.8060    0.0224 C.ar      1 <0>        -0.1481
     28 H2         -7.1385    8.7949    5.1123 H         1 <0>         0.0853
     29 H3         -8.4513    9.9868    4.9560 H         1 <0>         0.1173
     30 H4         -8.5517    8.4337    4.0922 H         1 <0>         0.1163
     31 H5         -7.7897    8.0669    0.9971 H         1 <0>         0.1621
     32 H6         -6.5837    6.1831   -0.0260 H         1 <0>         0.1388
     33 H7         -3.1829    7.0461    2.4403 H         1 <0>         0.1339
     34 H8         -4.4026    8.9321    3.4428 H         1 <0>         0.1484
     35 H9         -1.7141    2.6642   -2.3750 H         1 <0>         0.1403
     36 H10        -1.9659    0.8688   -4.0371 H         1 <0>         0.1533
     37 H11        -6.0860    0.4599   -2.9923 H         1 <0>         0.1533
     38 H12        -5.8479    2.2479   -1.3202 H         1 <0>         0.1376
     39 H13        -2.1492    1.1872    0.0188 H         1 <0>         0.1469
     40 H14         0.0021   -0.0041    0.0020 H         1 <0>         0.1727
     41 H15         2.1234    3.5647    0.0006 H         1 <0>         0.1719
     42 H16         0.0490    4.8852    0.0282 H         1 <0>         0.1423
     43 N3         -4.5445    4.5614   -0.4046 N.pl3     1 <0>        -0.4746
     44 H17        -5.4817    4.6255   -0.8191 H         1 <0>         0.4788
@<TRIPOS>BOND
     1    1    2 1
     2    1   28 1
     3    1   29 1
     4    1   30 1
     5    2    3 2
     6    2    4 1
     7    4    9 ar
     8    4    5 ar
     9    5    6 ar
    10    5   31 1
    11    6    7 ar
    12    6   32 1
    13    7    8 ar
    14    7   10 1
    15    8    9 ar
    16    8   33 1
    17    9   34 1
    18   10   11 1
    19   10   43 2
    20   11   12 1
    21   11   13 1
    22   13   14 2
    23   13   22 1
    24   14   15 1
    25   14   43 1
    26   15   20 ar
    27   15   16 ar
    28   16   17 ar
    29   16   35 1
    30   17   18 ar
    31   17   36 1
    32   18   19 ar
    33   18   21 1
    34   19   20 ar
    35   19   37 1
    36   20   38 1
    37   22   27 ar
    38   22   23 ar
    39   23   24 ar
    40   23   39 1
    41   24   25 ar
    42   24   40 1
    43   25   26 ar
    44   26   27 ar
    45   26   41 1
    46   27   42 1
    47   43   44 1
@<TRIPOS>MOLECULE
ZINC03815700
   43    46     0     0     0
SMALL
USER_CHARGES

@<TRIPOS>ATOM
      1 C1         -7.8787    9.2199    4.4344 C.3       1 <0>        -0.4976
      2 S1         -7.0376    9.9593    3.0073 S.o       1 <0>         1.3328
      3 O1         -6.0083   10.8273    3.4616 O.2       1 <0>        -0.8522
      4 C2         -6.1676    8.6109    2.2796 C.ar      1 <0>        -0.4534
      5 C3         -6.7803    7.8403    1.3074 C.ar      1 <0>        -0.0383
      6 C4         -6.1046    6.7834    0.7333 C.ar      1 <0>        -0.0924
      7 C5         -4.8002    6.4919    1.1355 C.ar      1 <0>         0.0175
      8 C6         -4.1902    7.2694    2.1212 C.ar      1 <0>        -0.1253
      9 C7         -4.8750    8.3270    2.6832 C.ar      1 <0>        -0.0497
     10 C8         -4.0701    5.3608    0.5245 C.2       1 <0>         0.2591
     11 N1         -2.7993    4.9779    0.8391 N.pl3     1 <0>        -0.5514
     12 H1         -2.2016    5.4043    1.5180 H         1 <0>         0.4313
     13 C9         -2.4937    3.8943    0.0467 C.2       1 <0>         0.0338
     14 C10        -3.6155    3.6485   -0.7282 C.2       1 <0>         0.0807
     15 N2         -4.5439    4.5614   -0.4043 N.2       1 <0>        -0.4501
     16 C11        -3.7635    2.5705   -1.7340 C.ar      1 <0>        -0.0214
     17 C12        -2.6707    2.1807   -2.5077 C.ar      1 <0>        -0.0721
     18 C13        -2.8124    1.1736   -3.4398 C.ar      1 <0>        -0.1512
     19 C14        -4.0405    0.5562   -3.6146 C.ar      1 <0>         0.1057
     20 C15        -5.1306    0.9436   -2.8519 C.ar      1 <0>        -0.1527
     21 C16        -4.9976    1.9464   -1.9140 C.ar      1 <0>        -0.0594
     22 F1         -4.1757   -0.4263   -4.5320 F         1 <0>        -0.1371
     23 C17        -1.2259    3.1407    0.0306 C.ar      1 <0>         0.0224
     24 C18        -1.2208    1.7390    0.0173 C.ar      1 <0>        -0.1436
     25 C19        -0.0126    1.0758    0.0080 C.ar      1 <0>         0.1076
     26 N3          1.1269    1.7422    0.0007 N.ar      1 <0>        -0.4785
     27 C20         1.1678    3.0615    0.0074 C.ar      1 <0>         0.1075
     28 C21         0.0079    3.8060    0.0224 C.ar      1 <0>        -0.1658
     29 H2         -7.1385    8.7949    5.1123 H         1 <0>         0.0809
     30 H3         -8.4513    9.9868    4.9560 H         1 <0>         0.1087
     31 H4         -8.5517    8.4337    4.0922 H         1 <0>         0.1130
     32 H5         -7.7897    8.0669    0.9971 H         1 <0>         0.1469
     33 H6         -6.5837    6.1831   -0.0260 H         1 <0>         0.1460
     34 H7         -3.1829    7.0461    2.4403 H         1 <0>         0.1203
     35 H8         -4.4026    8.9321    3.4428 H         1 <0>         0.1321
     36 H9         -1.7141    2.6642   -2.3750 H         1 <0>         0.1293
     37 H10        -1.9659    0.8688   -4.0371 H         1 <0>         0.1387
     38 H11        -6.0860    0.4599   -2.9923 H         1 <0>         0.1401
     39 H12        -5.8479    2.2479   -1.3202 H         1 <0>         0.1390
     40 H13        -2.1492    1.1872    0.0188 H         1 <0>         0.1408
     41 H14         0.0021   -0.0041    0.0020 H         1 <0>         0.1629
     42 H15         2.1234    3.5647    0.0006 H         1 <0>         0.1610
     43 H16         0.0490    4.8852    0.0282 H         1 <0>         0.1340
@<TRIPOS>BOND
     1    1    2 1
     2    1   29 1
     3    1   30 1
     4    1   31 1
     5    2    3 2
     6    2    4 1
     7    4    9 ar
     8    4    5 ar
     9    5    6 ar
    10    5   32 1
    11    6    7 ar
    12    6   33 1
    13    7    8 ar
    14    7   10 1
    15    8    9 ar
    16    8   34 1
    17    9   35 1
    18   10   15 2
    19   10   11 1
    20   11   12 1
    21   11   13 1
    22   13   14 2
    23   13   23 1
    24   14   15 1
    25   14   16 1
    26   16   21 ar
    27   16   17 ar
    28   17   18 ar
    29   17   36 1
    30   18   19 ar
    31   18   37 1
    32   19   20 ar
    33   19   22 1
    34   20   21 ar
    35   20   38 1
    36   21   39 1
    37   23   28 ar
    38   23   24 ar
    39   24   25 ar
    40   24   40 1
    41   25   26 ar
    42   25   41 1
    43   26   27 ar
    44   27   28 ar
    45   27   42 1
    46   28   43 1
@<TRIPOS>MOLECULE
ZINC03815703
   38    41     0     0     0
SMALL
USER_CHARGES

@<TRIPOS>ATOM
      1 C1         -6.1689    8.6097    2.2790 C.ar      1 <0>        -0.1064
      2 C2         -6.7809    7.8400    1.3057 C.ar      1 <0>        -0.1145
      3 C3         -6.1049    6.7833    0.7314 C.ar      1 <0>        -0.1123
      4 C4         -4.8007    6.4917    1.1341 C.ar      1 <0>        -0.0223
      5 C5         -4.1911    7.2688    2.1203 C.ar      1 <0>        -0.0741
      6 C6         -4.8763    8.3260    2.6827 C.ar      1 <0>        -0.1158
      7 C7         -4.0703    5.3609    0.5230 C.2       1 <0>         0.2414
      8 N1         -2.7994    4.9780    0.8378 N.2       1 <0>        -0.4496
      9 H1         -5.4542    4.6277   -0.8145 H         1 <0>         0.4290
     10 C8         -2.4938    3.8943    0.0459 C.2       1 <0>         0.0617
     11 C9         -3.6119    3.6541   -0.7360 C.2       1 <0>         0.0249
     12 N2         -4.5419    4.5647   -0.4098 N.pl3     1 <0>        -0.5077
     13 C10        -3.7574    2.5800   -1.7464 C.ar      1 <0>        -0.0166
     14 C11        -2.6631    2.1945   -2.5201 C.ar      1 <0>        -0.0789
     15 C12        -2.8029    1.1905   -3.4562 C.ar      1 <0>        -0.1013
     16 C13        -4.0293    0.5734   -3.6352 C.ar      1 <0>        -0.0289
     17 C14        -5.1203    0.9560   -2.8733 C.ar      1 <0>        -0.1031
     18 C15        -4.9903    1.9552   -1.9309 C.ar      1 <0>        -0.1024
     19 Cl1        -4.2000   -0.6841   -4.8197 Cl        1 <0>        -0.0613
     20 C16        -1.2260    3.1407    0.0302 C.ar      1 <0>         0.0406
     21 C17        -1.2208    1.7390    0.0173 C.ar      1 <0>        -0.1540
     22 C18        -0.0126    1.0758    0.0080 C.ar      1 <0>         0.1015
     23 N3          1.1268    1.7422    0.0007 N.ar      1 <0>        -0.4826
     24 C19         1.1677    3.0615    0.0074 C.ar      1 <0>         0.1012
     25 C20         0.0078    3.8060    0.0220 C.ar      1 <0>        -0.1467
     26 H2         -6.7025    9.4358    2.7254 H         1 <0>         0.1281
     27 H3         -7.7901    8.0667    0.9950 H         1 <0>         0.1294
     28 H4         -6.5837    6.1833   -0.0283 H         1 <0>         0.1173
     29 H5         -3.1838    7.0456    2.4395 H         1 <0>         0.1382
     30 H6         -4.4043    8.9306    3.4430 H         1 <0>         0.1313
     31 H7         -1.7071    2.6782   -2.3844 H         1 <0>         0.1352
     32 H8         -1.9551    0.8883   -4.0531 H         1 <0>         0.1404
     33 H9         -6.0748    0.4716   -3.0172 H         1 <0>         0.1392
     34 H10        -5.8420    2.2531   -1.3373 H         1 <0>         0.1294
     35 H11        -2.1492    1.1872    0.0188 H         1 <0>         0.1337
     36 H12         0.0021   -0.0041    0.0020 H         1 <0>         0.1582
     37 H13         2.1233    3.5647    0.0009 H         1 <0>         0.1591
     38 H14         0.0489    4.8852    0.0274 H         1 <0>         0.1385
@<TRIPOS>BOND
     1    1    6 ar
     2    1    2 ar
     3    1   26 1
     4    2    3 ar
     5    2   27 1
     6    3    4 ar
     7    3   28 1
     8    4    5 ar
     9    4    7 1
    10    5    6 ar
    11    5   29 1
    12    6   30 1
    13    7    8 2
    14    7   12 1
    15    8   10 1
    16    9   12 1
    17   10   11 2
    18   10   20 1
    19   11   12 1
    20   11   13 1
    21   13   18 ar
    22   13   14 ar
    23   14   15 ar
    24   14   31 1
    25   15   16 ar
    26   15   32 1
    27   16   17 ar
    28   16   19 1
    29   17   18 ar
    30   17   33 1
    31   18   34 1
    32   20   25 ar
    33   20   21 ar
    34   21   22 ar
    35   21   35 1
    36   22   23 ar
    37   22   36 1
    38   23   24 ar
    39   24   25 ar
    40   24   37 1
    41   25   38 1
@<TRIPOS>MOLECULE
ZINC03815703
   39    42     0     0     0
SMALL
USER_CHARGES

@<TRIPOS>ATOM
      1 C1         -6.1689    8.6097    2.2790 C.ar      1 <0>        -0.0632
      2 C2         -6.7809    7.8400    1.3057 C.ar      1 <0>        -0.1054
      3 C3         -6.1049    6.7833    0.7314 C.ar      1 <0>        -0.0747
      4 C4         -4.8007    6.4917    1.1341 C.ar      1 <0>        -0.0956
      5 C5         -4.1911    7.2688    2.1203 C.ar      1 <0>        -0.0721
      6 C6         -4.8763    8.3260    2.6827 C.ar      1 <0>        -0.1060
      7 C7         -4.0703    5.3609    0.5230 C.cat     1 <0>         0.3949
      8 N1         -2.7994    4.9780    0.8378 N.pl3     1 <0>        -0.5085
      9 H1         -2.2018    5.4046    1.5166 H         1 <0>         0.4715
     10 C8         -2.4938    3.8943    0.0459 C.2       1 <0>         0.1164
     11 C9         -3.6154    3.6482   -0.7292 C.2       1 <0>         0.1112
     12 C10        -3.7633    2.5699   -1.7347 C.ar      1 <0>        -0.0663
     13 C11        -2.6705    2.1798   -2.5082 C.ar      1 <0>        -0.0638
     14 C12        -2.8126    1.1719   -3.4397 C.ar      1 <0>        -0.1014
     15 C13        -4.0399    0.5554   -3.6145 C.ar      1 <0>        -0.0055
     16 C14        -5.1295    0.9425   -2.8528 C.ar      1 <0>        -0.1021
     17 C15        -4.9972    1.9456   -1.9149 C.ar      1 <0>        -0.0811
     18 Cl1        -4.2135   -0.7071   -4.7933 Cl        1 <0>        -0.0363
     19 C16        -1.2260    3.1407    0.0302 C.ar      1 <0>        -0.0205
     20 C17        -1.2208    1.7390    0.0173 C.ar      1 <0>        -0.1317
     21 C18        -0.0126    1.0758    0.0080 C.ar      1 <0>         0.1172
     22 N2          1.1268    1.7422    0.0007 N.ar      1 <0>        -0.4575
     23 C19         1.1677    3.0615    0.0074 C.ar      1 <0>         0.1171
     24 C20         0.0078    3.8060    0.0220 C.ar      1 <0>        -0.1484
     25 H2         -6.7025    9.4358    2.7254 H         1 <0>         0.1458
     26 H3         -7.7901    8.0667    0.9950 H         1 <0>         0.1477
     27 H4         -6.5837    6.1833   -0.0283 H         1 <0>         0.1317
     28 H5         -3.1838    7.0456    2.4395 H         1 <0>         0.1317
     29 H6         -4.4043    8.9306    3.4430 H         1 <0>         0.1474
     30 H7         -1.7138    2.6631   -2.3758 H         1 <0>         0.1394
     31 H8         -1.9659    0.8662   -4.0364 H         1 <0>         0.1503
     32 H9         -6.0847    0.4585   -2.9934 H         1 <0>         0.1502
     33 H10        -5.8478    2.2470   -1.3215 H         1 <0>         0.1363
     34 H11        -2.1492    1.1872    0.0188 H         1 <0>         0.1462
     35 H12         0.0021   -0.0041    0.0020 H         1 <0>         0.1723
     36 H13         2.1233    3.5647    0.0009 H         1 <0>         0.1715
     37 H14         0.0489    4.8852    0.0274 H         1 <0>         0.1422
     38 N3         -4.5446    4.5612   -0.4060 N.pl3     1 <0>        -0.4788
     39 H15        -5.4817    4.6252   -0.8206 H         1 <0>         0.4779
@<TRIPOS>BOND
     1    1    6 ar
     2    1    2 ar
     3    1   25 1
     4    2    3 ar
     5    2   26 1
     6    3    4 ar
     7    3   27 1
     8    4    5 ar
     9    4    7 1
    10    5    6 ar
    11    5   28 1
    12    6   29 1
    13    7    8 1
    14    7   38 2
    15    8    9 1
    16    8   10 1
    17   10   11 2
    18   10   19 1
    19   11   12 1
    20   11   38 1
    21   12   17 ar
    22   12   13 ar
    23   13   14 ar
    24   13   30 1
    25   14   15 ar
    26   14   31 1
    27   15   16 ar
    28   15   18 1
    29   16   17 ar
    30   16   32 1
    31   17   33 1
    32   19   24 ar
    33   19   20 ar
    34   20   21 ar
    35   20   34 1
    36   21   22 ar
    37   21   35 1
    38   22   23 ar
    39   23   24 ar
    40   23   36 1
    41   24   37 1
    42   38   39 1
@<TRIPOS>MOLECULE
ZINC03815703
   38    41     0     0     0
SMALL
USER_CHARGES

@<TRIPOS>ATOM
      1 C1         -6.1689    8.6097    2.2790 C.ar      1 <0>        -0.1064
      2 C2         -6.7809    7.8400    1.3057 C.ar      1 <0>        -0.1145
      3 C3         -6.1049    6.7833    0.7314 C.ar      1 <0>        -0.1123
      4 C4         -4.8007    6.4917    1.1341 C.ar      1 <0>        -0.0223
      5 C5         -4.1911    7.2688    2.1203 C.ar      1 <0>        -0.0741
      6 C6         -4.8763    8.3260    2.6827 C.ar      1 <0>        -0.1158
      7 C7         -4.0703    5.3609    0.5230 C.2       1 <0>         0.2414
      8 N1         -2.7994    4.9780    0.8378 N.2       1 <0>        -0.4496
      9 H1         -5.4542    4.6277   -0.8145 H         1 <0>         0.4290
     10 C8         -2.4938    3.8943    0.0459 C.2       1 <0>         0.0617
     11 C9         -3.6119    3.6541   -0.7360 C.2       1 <0>         0.0249
     12 N2         -4.5419    4.5647   -0.4098 N.pl3     1 <0>        -0.5077
     13 C10        -3.7574    2.5800   -1.7464 C.ar      1 <0>        -0.0166
     14 C11        -2.6631    2.1945   -2.5201 C.ar      1 <0>        -0.0789
     15 C12        -2.8029    1.1905   -3.4562 C.ar      1 <0>        -0.1013
     16 C13        -4.0293    0.5734   -3.6352 C.ar      1 <0>        -0.0289
     17 C14        -5.1203    0.9560   -2.8733 C.ar      1 <0>        -0.1031
     18 C15        -4.9903    1.9552   -1.9309 C.ar      1 <0>        -0.1024
     19 Cl1        -4.2000   -0.6841   -4.8197 Cl        1 <0>        -0.0613
     20 C16        -1.2260    3.1407    0.0302 C.ar      1 <0>         0.0406
     21 C17        -1.2208    1.7390    0.0173 C.ar      1 <0>        -0.1540
     22 C18        -0.0126    1.0758    0.0080 C.ar      1 <0>         0.1015
     23 N3          1.1268    1.7422    0.0007 N.ar      1 <0>        -0.4826
     24 C19         1.1677    3.0615    0.0074 C.ar      1 <0>         0.1012
     25 C20         0.0078    3.8060    0.0220 C.ar      1 <0>        -0.1467
     26 H2         -6.7025    9.4358    2.7254 H         1 <0>         0.1281
     27 H3         -7.7901    8.0667    0.9950 H         1 <0>         0.1294
     28 H4         -6.5837    6.1833   -0.0283 H         1 <0>         0.1173
     29 H5         -3.1838    7.0456    2.4395 H         1 <0>         0.1382
     30 H6         -4.4043    8.9306    3.4430 H         1 <0>         0.1313
     31 H7         -1.7071    2.6782   -2.3844 H         1 <0>         0.1352
     32 H8         -1.9551    0.8883   -4.0531 H         1 <0>         0.1404
     33 H9         -6.0748    0.4716   -3.0172 H         1 <0>         0.1392
     34 H10        -5.8420    2.2531   -1.3373 H         1 <0>         0.1294
     35 H11        -2.1492    1.1872    0.0188 H         1 <0>         0.1337
     36 H12         0.0021   -0.0041    0.0020 H         1 <0>         0.1582
     37 H13         2.1233    3.5647    0.0009 H         1 <0>         0.1591
     38 H14         0.0489    4.8852    0.0274 H         1 <0>         0.1385
@<TRIPOS>BOND
     1    1    6 ar
     2    1    2 ar
     3    1   26 1
     4    2    3 ar
     5    2   27 1
     6    3    4 ar
     7    3   28 1
     8    4    5 ar
     9    4    7 1
    10    5    6 ar
    11    5   29 1
    12    6   30 1
    13    7    8 2
    14    7   12 1
    15    8   10 1
    16    9   12 1
    17   10   11 2
    18   10   20 1
    19   11   12 1
    20   11   13 1
    21   13   18 ar
    22   13   14 ar
    23   14   15 ar
    24   14   31 1
    25   15   16 ar
    26   15   32 1
    27   16   17 ar
    28   16   19 1
    29   17   18 ar
    30   17   33 1
    31   18   34 1
    32   20   25 ar
    33   20   21 ar
    34   21   22 ar
    35   21   35 1
    36   22   23 ar
    37   22   36 1
    38   23   24 ar
    39   24   25 ar
    40   24   37 1
    41   25   38 1
@<TRIPOS>MOLECULE
ZINC03815704
   40    43     0     0     0
SMALL
USER_CHARGES

@<TRIPOS>ATOM
      1 C1         -2.4782    1.5849    0.3790 C.ar      1 <0>        -0.0201
      2 C2         -3.5979    2.3537    0.6084 C.ar      1 <0>        -0.1978
      3 C3         -3.4675    3.7123    0.8765 C.ar      1 <0>         0.2325
      4 C4         -2.2066    4.2981    0.9186 C.ar      1 <0>        -0.1962
      5 C5         -1.0827    3.5335    0.6957 C.ar      1 <0>        -0.0574
      6 C6         -1.2102    2.1689    0.4267 C.ar      1 <0>        -0.0881
      7 C7         -0.0069    1.3460    0.1873 C.2       1 <0>         0.2585
      8 N1         -0.0043    0.0089   -0.0840 N.2       1 <0>        -0.4594
      9 H1          1.5062    2.7310    0.3770 H         1 <0>         0.4272
     10 C8          1.3106   -0.3700   -0.2464 C.2       1 <0>         0.0587
     11 C9          2.0722    0.7707   -0.0547 C.2       1 <0>         0.0194
     12 N2          1.2319    1.7854    0.2017 N.pl3     1 <0>        -0.5125
     13 C10         3.5497    0.8570   -0.1261 C.ar      1 <0>        -0.0306
     14 C11         4.3373   -0.1360    0.4557 C.ar      1 <0>        -0.0614
     15 C12         5.7124   -0.0538    0.3823 C.ar      1 <0>        -0.1456
     16 C13         6.3113    1.0183   -0.2596 C.ar      1 <0>         0.1067
     17 C14         5.5331    2.0100   -0.8347 C.ar      1 <0>        -0.1477
     18 C15         4.1571    1.9342   -0.7707 C.ar      1 <0>        -0.0839
     19 F1          7.6585    1.0970   -0.3245 F         1 <0>        -0.1353
     20 C16         1.8086   -1.7236   -0.5536 C.ar      1 <0>         0.0443
     21 C17         2.7549   -1.9307   -1.5671 C.ar      1 <0>        -0.1537
     22 C18         3.1955   -3.2124   -1.8173 C.ar      1 <0>         0.1010
     23 N3          2.7319   -4.2363   -1.1249 N.ar      1 <0>        -0.4843
     24 C19         1.8374   -4.0869   -0.1657 C.ar      1 <0>         0.1001
     25 C20         1.3447   -2.8405    0.1555 C.ar      1 <0>        -0.1478
     26 N4         -4.6031    4.4888    1.1029 N.pl3     1 <0>        -0.8716
     27 H2         -2.5803    0.5309    0.1668 H         1 <0>         0.1376
     28 H3         -4.5783    1.9019    0.5760 H         1 <0>         0.1281
     29 H4         -2.1086    5.3533    1.1266 H         1 <0>         0.1264
     30 H5         -0.1039    3.9889    0.7285 H         1 <0>         0.1167
     31 H6          3.8714   -0.9699    0.9598 H         1 <0>         0.1345
     32 H7          6.3232   -0.8242    0.8293 H         1 <0>         0.1417
     33 H8          6.0044    2.8438   -1.3336 H         1 <0>         0.1406
     34 H9          3.5514    2.7080   -1.2186 H         1 <0>         0.1311
     35 H10         3.1354   -1.0983   -2.1404 H         1 <0>         0.1330
     36 H11         3.9268   -3.3820   -2.5936 H         1 <0>         0.1571
     37 H12         1.4864   -4.9536    0.3747 H         1 <0>         0.1581
     38 H13         0.6130   -2.7259    0.9415 H         1 <0>         0.1378
     39 H14        -4.5134    5.4364    1.2896 H         1 <0>         0.4006
     40 H15        -5.4829    4.0814    1.0738 H         1 <0>         0.4015
@<TRIPOS>BOND
     1    1    6 ar
     2    1    2 ar
     3    1   27 1
     4    2    3 ar
     5    2   28 1
     6    3    4 ar
     7    3   26 1
     8    4    5 ar
     9    4   29 1
    10    5    6 ar
    11    5   30 1
    12    6    7 1
    13    7    8 2
    14    7   12 1
    15    8   10 1
    16    9   12 1
    17   10   11 2
    18   10   20 1
    19   11   12 1
    20   11   13 1
    21   13   18 ar
    22   13   14 ar
    23   14   15 ar
    24   14   31 1
    25   15   16 ar
    26   15   32 1
    27   16   17 ar
    28   16   19 1
    29   17   18 ar
    30   17   33 1
    31   18   34 1
    32   20   25 ar
    33   20   21 ar
    34   21   22 ar
    35   21   35 1
    36   22   23 ar
    37   22   36 1
    38   23   24 ar
    39   24   25 ar
    40   24   37 1
    41   25   38 1
    42   26   39 1
    43   26   40 1
@<TRIPOS>MOLECULE
ZINC03815704
   41    44     0     0     0
SMALL
USER_CHARGES

@<TRIPOS>ATOM
      1 C1         -2.4782    1.5849    0.3790 C.ar      1 <0>        -0.0139
      2 C2         -3.5979    2.3537    0.6084 C.ar      1 <0>        -0.1930
      3 C3         -3.4675    3.7123    0.8765 C.ar      1 <0>         0.2764
      4 C4         -2.2066    4.2981    0.9186 C.ar      1 <0>        -0.1922
      5 C5         -1.0827    3.5335    0.6957 C.ar      1 <0>        -0.0164
      6 C6         -1.2102    2.1689    0.4267 C.ar      1 <0>        -0.1701
      7 C7         -0.0069    1.3460    0.1873 C.cat     1 <0>         0.4155
      8 N1         -0.0043    0.0089   -0.0840 N.pl3     1 <0>        -0.5194
      9 H1         -0.8061   -0.5848   -0.1522 H         1 <0>         0.4691
     10 C8          1.3106   -0.3700   -0.2464 C.2       1 <0>         0.1087
     11 C9          2.0716    0.7727   -0.0643 C.2       1 <0>         0.1086
     12 C10         3.5487    0.8603   -0.1426 C.ar      1 <0>        -0.0805
     13 C11         4.3399   -0.1319    0.4356 C.ar      1 <0>        -0.0454
     14 C12         5.7146   -0.0484    0.3558 C.ar      1 <0>        -0.1466
     15 C13         6.3095    1.0242   -0.2889 C.ar      1 <0>         0.1398
     16 C14         5.5277    2.0152   -0.8604 C.ar      1 <0>        -0.1474
     17 C15         4.1521    1.9381   -0.7900 C.ar      1 <0>        -0.0631
     18 F1          7.6563    1.1042   -0.3600 F         1 <0>        -0.1221
     19 C16         1.8086   -1.7236   -0.5536 C.ar      1 <0>        -0.0159
     20 C17         2.7549   -1.9307   -1.5671 C.ar      1 <0>        -0.1316
     21 C18         3.1955   -3.2124   -1.8173 C.ar      1 <0>         0.1161
     22 N2          2.7319   -4.2363   -1.1249 N.ar      1 <0>        -0.4600
     23 C19         1.8374   -4.0869   -0.1657 C.ar      1 <0>         0.1155
     24 C20         1.3447   -2.8405    0.1555 C.ar      1 <0>        -0.1498
     25 N3         -4.6031    4.4888    1.1029 N.pl3     1 <0>        -0.8478
     26 H2         -2.5803    0.5309    0.1668 H         1 <0>         0.1306
     27 H3         -4.5783    1.9019    0.5760 H         1 <0>         0.1435
     28 H4         -2.1086    5.3533    1.1266 H         1 <0>         0.1439
     29 H5         -0.1039    3.9889    0.7285 H         1 <0>         0.1307
     30 H6          3.8771   -0.9662    0.9418 H         1 <0>         0.1391
     31 H7          6.3281   -0.8182    0.8000 H         1 <0>         0.1515
     32 H8          5.9959    2.8494   -1.3615 H         1 <0>         0.1516
     33 H9          3.5436    2.7113   -1.2351 H         1 <0>         0.1381
     34 H10         3.1354   -1.0983   -2.1404 H         1 <0>         0.1451
     35 H11         3.9268   -3.3820   -2.5936 H         1 <0>         0.1707
     36 H12         1.4864   -4.9536    0.3747 H         1 <0>         0.1701
     37 H13         0.6130   -2.7259    0.9415 H         1 <0>         0.1417
     38 H14        -4.5134    5.4364    1.2896 H         1 <0>         0.4115
     39 H15        -5.4829    4.0814    1.0738 H         1 <0>         0.4115
     40 N4          1.2317    1.7873    0.1961 N.pl3     1 <0>        -0.4896
     41 H16         1.5133    2.7584    0.3747 H         1 <0>         0.4756
@<TRIPOS>BOND
     1    1    6 ar
     2    1    2 ar
     3    1   26 1
     4    2    3 ar
     5    2   27 1
     6    3    4 ar
     7    3   25 1
     8    4    5 ar
     9    4   28 1
    10    5    6 ar
    11    5   29 1
    12    6    7 1
    13    7    8 1
    14    7   40 2
    15    8    9 1
    16    8   10 1
    17   10   11 2
    18   10   19 1
    19   11   12 1
    20   11   40 1
    21   12   17 ar
    22   12   13 ar
    23   13   14 ar
    24   13   30 1
    25   14   15 ar
    26   14   31 1
    27   15   16 ar
    28   15   18 1
    29   16   17 ar
    30   16   32 1
    31   17   33 1
    32   19   24 ar
    33   19   20 ar
    34   20   21 ar
    35   20   34 1
    36   21   22 ar
    37   21   35 1
    38   22   23 ar
    39   23   24 ar
    40   23   36 1
    41   24   37 1
    42   25   38 1
    43   25   39 1
    44   40   41 1
@<TRIPOS>MOLECULE
ZINC03815704
   40    43     0     0     0
SMALL
USER_CHARGES

@<TRIPOS>ATOM
      1 C1         -2.4782    1.5849    0.3790 C.ar      1 <0>        -0.0201
      2 C2         -3.5979    2.3537    0.6084 C.ar      1 <0>        -0.1978
      3 C3         -3.4675    3.7123    0.8765 C.ar      1 <0>         0.2325
      4 C4         -2.2066    4.2981    0.9186 C.ar      1 <0>        -0.1962
      5 C5         -1.0827    3.5335    0.6957 C.ar      1 <0>        -0.0574
      6 C6         -1.2102    2.1689    0.4267 C.ar      1 <0>        -0.0881
      7 C7         -0.0069    1.3460    0.1873 C.2       1 <0>         0.2585
      8 N1         -0.0043    0.0089   -0.0840 N.2       1 <0>        -0.4594
      9 H1          1.5062    2.7310    0.3770 H         1 <0>         0.4272
     10 C8          1.3106   -0.3700   -0.2464 C.2       1 <0>         0.0587
     11 C9          2.0722    0.7707   -0.0547 C.2       1 <0>         0.0194
     12 N2          1.2319    1.7854    0.2017 N.pl3     1 <0>        -0.5125
     13 C10         3.5497    0.8570   -0.1261 C.ar      1 <0>        -0.0306
     14 C11         4.3373   -0.1360    0.4557 C.ar      1 <0>        -0.0614
     15 C12         5.7124   -0.0538    0.3823 C.ar      1 <0>        -0.1456
     16 C13         6.3113    1.0183   -0.2596 C.ar      1 <0>         0.1067
     17 C14         5.5331    2.0100   -0.8347 C.ar      1 <0>        -0.1477
     18 C15         4.1571    1.9342   -0.7707 C.ar      1 <0>        -0.0839
     19 F1          7.6585    1.0970   -0.3245 F         1 <0>        -0.1353
     20 C16         1.8086   -1.7236   -0.5536 C.ar      1 <0>         0.0443
     21 C17         2.7549   -1.9307   -1.5671 C.ar      1 <0>        -0.1537
     22 C18         3.1955   -3.2124   -1.8173 C.ar      1 <0>         0.1010
     23 N3          2.7319   -4.2363   -1.1249 N.ar      1 <0>        -0.4843
     24 C19         1.8374   -4.0869   -0.1657 C.ar      1 <0>         0.1001
     25 C20         1.3447   -2.8405    0.1555 C.ar      1 <0>        -0.1478
     26 N4         -4.6031    4.4888    1.1029 N.pl3     1 <0>        -0.8716
     27 H2         -2.5803    0.5309    0.1668 H         1 <0>         0.1376
     28 H3         -4.5783    1.9019    0.5760 H         1 <0>         0.1281
     29 H4         -2.1086    5.3533    1.1266 H         1 <0>         0.1264
     30 H5         -0.1039    3.9889    0.7285 H         1 <0>         0.1167
     31 H6          3.8714   -0.9699    0.9598 H         1 <0>         0.1345
     32 H7          6.3232   -0.8242    0.8293 H         1 <0>         0.1417
     33 H8          6.0044    2.8438   -1.3336 H         1 <0>         0.1406
     34 H9          3.5514    2.7080   -1.2186 H         1 <0>         0.1311
     35 H10         3.1354   -1.0983   -2.1404 H         1 <0>         0.1330
     36 H11         3.9268   -3.3820   -2.5936 H         1 <0>         0.1571
     37 H12         1.4864   -4.9536    0.3747 H         1 <0>         0.1581
     38 H13         0.6130   -2.7259    0.9415 H         1 <0>         0.1378
     39 H14        -4.5134    5.4364    1.2896 H         1 <0>         0.4006
     40 H15        -5.4829    4.0814    1.0738 H         1 <0>         0.4015
@<TRIPOS>BOND
     1    1    6 ar
     2    1    2 ar
     3    1   27 1
     4    2    3 ar
     5    2   28 1
     6    3    4 ar
     7    3   26 1
     8    4    5 ar
     9    4   29 1
    10    5    6 ar
    11    5   30 1
    12    6    7 1
    13    7    8 2
    14    7   12 1
    15    8   10 1
    16    9   12 1
    17   10   11 2
    18   10   20 1
    19   11   12 1
    20   11   13 1
    21   13   18 ar
    22   13   14 ar
    23   14   15 ar
    24   14   31 1
    25   15   16 ar
    26   15   32 1
    27   16   17 ar
    28   16   19 1
    29   17   18 ar
    30   17   33 1
    31   18   34 1
    32   20   25 ar
    33   20   21 ar
    34   21   22 ar
    35   21   35 1
    36   22   23 ar
    37   22   36 1
    38   23   24 ar
    39   24   25 ar
    40   24   37 1
    41   25   38 1
    42   26   39 1
    43   26   40 1
@<TRIPOS>MOLECULE
ZINC03815705
   40    43     0     0     0
SMALL
USER_CHARGES

@<TRIPOS>ATOM
      1 C1         -2.4790    1.5868    0.3797 C.ar      1 <0>        -0.0778
      2 C2         -3.5985    2.3598    0.6086 C.ar      1 <0>        -0.0466
      3 C3         -3.4673    3.7112    0.8749 C.ar      1 <0>        -0.0393
      4 C4         -2.2138    4.2955    0.9178 C.ar      1 <0>        -0.0450
      5 C5         -1.0859    3.5328    0.6956 C.ar      1 <0>        -0.1163
      6 C6         -1.2113    2.1689    0.4268 C.ar      1 <0>         0.0412
      7 C7         -0.0069    1.3457    0.1871 C.2       1 <0>         0.2136
      8 N1         -0.0043    0.0088   -0.0838 N.2       1 <0>        -0.4339
      9 H1          1.5053    2.7309    0.3760 H         1 <0>         0.4316
     10 C8          1.3093   -0.3701   -0.2463 C.2       1 <0>         0.0631
     11 C9          2.0714    0.7711   -0.0553 C.2       1 <0>         0.0466
     12 N2          1.2311    1.7853    0.2011 N.pl3     1 <0>        -0.5025
     13 C10         3.5489    0.8574   -0.1273 C.ar      1 <0>        -0.0426
     14 C11         4.3367   -0.1355    0.4543 C.ar      1 <0>        -0.0565
     15 C12         5.7118   -0.0537    0.3795 C.ar      1 <0>        -0.1459
     16 C13         6.3105    1.0185   -0.2623 C.ar      1 <0>         0.1140
     17 C14         5.5319    2.0104   -0.8367 C.ar      1 <0>        -0.1480
     18 C15         4.1560    1.9346   -0.7721 C.ar      1 <0>        -0.0795
     19 F1          7.6575    1.0974   -0.3276 F         1 <0>        -0.1326
     20 C16         1.8071   -1.7240   -0.5535 C.ar      1 <0>         0.0372
     21 C17         2.7533   -1.9313   -1.5668 C.ar      1 <0>        -0.1517
     22 C18         3.1944   -3.2131   -1.8163 C.ar      1 <0>         0.1028
     23 N3          2.7306   -4.2368   -1.1239 N.ar      1 <0>        -0.4809
     24 C19         1.8358   -4.0872   -0.1651 C.ar      1 <0>         0.1021
     25 C20         1.3431   -2.8406    0.1556 C.ar      1 <0>        -0.1460
     26 N4         -4.6738    4.5360    1.1145 N.pl3     1 <0>         0.0247
     27 O1         -4.5613    5.7259    1.3487 O.2       1 <0>        -0.1552
     28 O2         -5.7785    4.0243    1.0773 O.3       1 <0>        -0.1519
     29 H2         -2.5831    0.5329    0.1679 H         1 <0>         0.1628
     30 H3         -4.5798    1.9099    0.5761 H         1 <0>         0.1626
     31 H4         -2.1182    5.3509    1.1262 H         1 <0>         0.1609
     32 H5         -0.1081    3.9902    0.7290 H         1 <0>         0.1426
     33 H6          3.8711   -0.9691    0.9589 H         1 <0>         0.1360
     34 H7          6.3228   -0.8244    0.8258 H         1 <0>         0.1439
     35 H8          6.0031    2.8444   -1.3355 H         1 <0>         0.1429
     36 H9          3.5501    2.7083   -1.2199 H         1 <0>         0.1321
     37 H10         3.1335   -1.0991   -2.1406 H         1 <0>         0.1341
     38 H11         3.9262   -3.3828   -2.5921 H         1 <0>         0.1589
     39 H12         1.4846   -4.9538    0.3755 H         1 <0>         0.1599
     40 H13         0.6111   -2.7258    0.9414 H         1 <0>         0.1385
@<TRIPOS>BOND
     1    1    6 ar
     2    1    2 ar
     3    1   29 1
     4    2    3 ar
     5    2   30 1
     6    3    4 ar
     7    3   26 1
     8    4    5 ar
     9    4   31 1
    10    5    6 ar
    11    5   32 1
    12    6    7 1
    13    7    8 2
    14    7   12 1
    15    8   10 1
    16    9   12 1
    17   10   11 2
    18   10   20 1
    19   11   12 1
    20   11   13 1
    21   13   18 ar
    22   13   14 ar
    23   14   15 ar
    24   14   33 1
    25   15   16 ar
    26   15   34 1
    27   16   17 ar
    28   16   19 1
    29   17   18 ar
    30   17   35 1
    31   18   36 1
    32   20   25 ar
    33   20   21 ar
    34   21   22 ar
    35   21   37 1
    36   22   23 ar
    37   22   38 1
    38   23   24 ar
    39   24   25 ar
    40   24   39 1
    41   25   40 1
    42   26   27 2
    43   26   28 1
@<TRIPOS>MOLECULE
ZINC03815705
   41    44     0     0     0
SMALL
USER_CHARGES

@<TRIPOS>ATOM
      1 C1         -2.4790    1.5868    0.3797 C.ar      1 <0>        -0.0737
      2 C2         -3.5985    2.3598    0.6086 C.ar      1 <0>        -0.0414
      3 C3         -3.4673    3.7112    0.8749 C.ar      1 <0>         0.0006
      4 C4         -2.2138    4.2955    0.9178 C.ar      1 <0>        -0.0410
      5 C5         -1.0859    3.5328    0.6956 C.ar      1 <0>        -0.0762
      6 C6         -1.2113    2.1689    0.4268 C.ar      1 <0>        -0.0384
      7 C7         -0.0069    1.3457    0.1871 C.cat     1 <0>         0.3682
      8 N1         -0.0043    0.0088   -0.0838 N.pl3     1 <0>        -0.4977
      9 H1         -0.8062   -0.5848   -0.1516 H         1 <0>         0.4738
     10 C8          1.3093   -0.3701   -0.2463 C.2       1 <0>         0.1272
     11 C9          2.0708    0.7730   -0.0645 C.2       1 <0>         0.1231
     12 C10         3.5479    0.8606   -0.1431 C.ar      1 <0>        -0.0908
     13 C11         4.3392   -0.1316    0.4350 C.ar      1 <0>        -0.0416
     14 C12         5.7139   -0.0486    0.3541 C.ar      1 <0>        -0.1464
     15 C13         6.3087    1.0242   -0.2903 C.ar      1 <0>         0.1465
     16 C14         5.5267    2.0154   -0.8613 C.ar      1 <0>        -0.1472
     17 C15         4.1512    1.9383   -0.7906 C.ar      1 <0>        -0.0598
     18 F1          7.6554    1.1043   -0.3616 F         1 <0>        -0.1192
     19 C16         1.8071   -1.7240   -0.5535 C.ar      1 <0>        -0.0259
     20 C17         2.7533   -1.9313   -1.5668 C.ar      1 <0>        -0.1280
     21 C18         3.1944   -3.2131   -1.8163 C.ar      1 <0>         0.1182
     22 N2          2.7306   -4.2368   -1.1239 N.ar      1 <0>        -0.4554
     23 C19         1.8358   -4.0872   -0.1651 C.ar      1 <0>         0.1176
     24 C20         1.3431   -2.8406    0.1556 C.ar      1 <0>        -0.1467
     25 N3         -4.6738    4.5360    1.1145 N.pl3     1 <0>         0.0099
     26 O1         -4.5613    5.7259    1.3487 O.2       1 <0>        -0.1283
     27 O2         -5.7785    4.0243    1.0773 O.3       1 <0>        -0.1287
     28 H2         -2.5831    0.5329    0.1679 H         1 <0>         0.1558
     29 H3         -4.5798    1.9099    0.5761 H         1 <0>         0.1770
     30 H4         -2.1182    5.3509    1.1262 H         1 <0>         0.1773
     31 H5         -0.1081    3.9902    0.7290 H         1 <0>         0.1559
     32 H6          3.8766   -0.9656    0.9417 H         1 <0>         0.1405
     33 H7          6.3275   -0.8187    0.7977 H         1 <0>         0.1538
     34 H8          5.9949    2.8498   -1.3622 H         1 <0>         0.1538
     35 H9          3.5426    2.7115   -1.2357 H         1 <0>         0.1389
     36 H10         3.1335   -1.0991   -2.1406 H         1 <0>         0.1468
     37 H11         3.9262   -3.3828   -2.5921 H         1 <0>         0.1730
     38 H12         1.4846   -4.9538    0.3755 H         1 <0>         0.1724
     39 H13         0.6111   -2.7258    0.9414 H         1 <0>         0.1429
     40 N4          1.2310    1.7871    0.1957 N.pl3     1 <0>        -0.4676
     41 H14         1.5123    2.7583    0.3741 H         1 <0>         0.4805
@<TRIPOS>BOND
     1    1    6 ar
     2    1    2 ar
     3    1   28 1
     4    2    3 ar
     5    2   29 1
     6    3    4 ar
     7    3   25 1
     8    4    5 ar
     9    4   30 1
    10    5    6 ar
    11    5   31 1
    12    6    7 1
    13    7    8 1
    14    7   40 2
    15    8    9 1
    16    8   10 1
    17   10   11 2
    18   10   19 1
    19   11   12 1
    20   11   40 1
    21   12   17 ar
    22   12   13 ar
    23   13   14 ar
    24   13   32 1
    25   14   15 ar
    26   14   33 1
    27   15   16 ar
    28   15   18 1
    29   16   17 ar
    30   16   34 1
    31   17   35 1
    32   19   24 ar
    33   19   20 ar
    34   20   21 ar
    35   20   36 1
    36   21   22 ar
    37   21   37 1
    38   22   23 ar
    39   23   24 ar
    40   23   38 1
    41   24   39 1
    42   25   26 2
    43   25   27 1
    44   40   41 1
@<TRIPOS>MOLECULE
ZINC03815705
   40    43     0     0     0
SMALL
USER_CHARGES

@<TRIPOS>ATOM
      1 C1         -2.4790    1.5868    0.3797 C.ar      1 <0>        -0.0778
      2 C2         -3.5985    2.3598    0.6086 C.ar      1 <0>        -0.0466
      3 C3         -3.4673    3.7112    0.8749 C.ar      1 <0>        -0.0393
      4 C4         -2.2138    4.2955    0.9178 C.ar      1 <0>        -0.0450
      5 C5         -1.0859    3.5328    0.6956 C.ar      1 <0>        -0.1163
      6 C6         -1.2113    2.1689    0.4268 C.ar      1 <0>         0.0412
      7 C7         -0.0069    1.3457    0.1871 C.2       1 <0>         0.2136
      8 N1         -0.0043    0.0088   -0.0838 N.2       1 <0>        -0.4339
      9 H1          1.5053    2.7309    0.3760 H         1 <0>         0.4316
     10 C8          1.3093   -0.3701   -0.2463 C.2       1 <0>         0.0631
     11 C9          2.0714    0.7711   -0.0553 C.2       1 <0>         0.0466
     12 N2          1.2311    1.7853    0.2011 N.pl3     1 <0>        -0.5025
     13 C10         3.5489    0.8574   -0.1273 C.ar      1 <0>        -0.0426
     14 C11         4.3367   -0.1355    0.4543 C.ar      1 <0>        -0.0565
     15 C12         5.7118   -0.0537    0.3795 C.ar      1 <0>        -0.1459
     16 C13         6.3105    1.0185   -0.2623 C.ar      1 <0>         0.1140
     17 C14         5.5319    2.0104   -0.8367 C.ar      1 <0>        -0.1480
     18 C15         4.1560    1.9346   -0.7721 C.ar      1 <0>        -0.0795
     19 F1          7.6575    1.0974   -0.3276 F         1 <0>        -0.1326
     20 C16         1.8071   -1.7240   -0.5535 C.ar      1 <0>         0.0372
     21 C17         2.7533   -1.9313   -1.5668 C.ar      1 <0>        -0.1517
     22 C18         3.1944   -3.2131   -1.8163 C.ar      1 <0>         0.1028
     23 N3          2.7306   -4.2368   -1.1239 N.ar      1 <0>        -0.4809
     24 C19         1.8358   -4.0872   -0.1651 C.ar      1 <0>         0.1021
     25 C20         1.3431   -2.8406    0.1556 C.ar      1 <0>        -0.1460
     26 N4         -4.6738    4.5360    1.1145 N.pl3     1 <0>         0.0247
     27 O1         -4.5613    5.7259    1.3487 O.2       1 <0>        -0.1552
     28 O2         -5.7785    4.0243    1.0773 O.3       1 <0>        -0.1519
     29 H2         -2.5831    0.5329    0.1679 H         1 <0>         0.1628
     30 H3         -4.5798    1.9099    0.5761 H         1 <0>         0.1626
     31 H4         -2.1182    5.3509    1.1262 H         1 <0>         0.1609
     32 H5         -0.1081    3.9902    0.7290 H         1 <0>         0.1426
     33 H6          3.8711   -0.9691    0.9589 H         1 <0>         0.1360
     34 H7          6.3228   -0.8244    0.8258 H         1 <0>         0.1439
     35 H8          6.0031    2.8444   -1.3355 H         1 <0>         0.1429
     36 H9          3.5501    2.7083   -1.2199 H         1 <0>         0.1321
     37 H10         3.1335   -1.0991   -2.1406 H         1 <0>         0.1341
     38 H11         3.9262   -3.3828   -2.5921 H         1 <0>         0.1589
     39 H12         1.4846   -4.9538    0.3755 H         1 <0>         0.1599
     40 H13         0.6111   -2.7258    0.9414 H         1 <0>         0.1385
@<TRIPOS>BOND
     1    1    6 ar
     2    1    2 ar
     3    1   29 1
     4    2    3 ar
     5    2   30 1
     6    3    4 ar
     7    3   26 1
     8    4    5 ar
     9    4   31 1
    10    5    6 ar
    11    5   32 1
    12    6    7 1
    13    7    8 2
    14    7   12 1
    15    8   10 1
    16    9   12 1
    17   10   11 2
    18   10   20 1
    19   11   12 1
    20   11   13 1
    21   13   18 ar
    22   13   14 ar
    23   14   15 ar
    24   14   33 1
    25   15   16 ar
    26   15   34 1
    27   16   17 ar
    28   16   19 1
    29   17   18 ar
    30   17   35 1
    31   18   36 1
    32   20   25 ar
    33   20   21 ar
    34   21   22 ar
    35   21   37 1
    36   22   23 ar
    37   22   38 1
    38   23   24 ar
    39   24   25 ar
    40   24   39 1
    41   25   40 1
    42   26   27 2
    43   26   28 1
@<TRIPOS>MOLECULE
ZINC03815706
   40    42     0     0     0
SMALL
USER_CHARGES

@<TRIPOS>ATOM
      1 C1         -2.5089    1.6534   -6.5088 C.3       1 <0>        -0.1458
      2 C2         -2.3552    2.5533   -5.3098 C.2       1 <0>         0.4626
      3 O1         -1.6249    3.5143   -5.3654 O.2       1 <0>        -0.5075
      4 O2         -3.0296    2.2873   -4.1802 O.3       1 <0>        -0.3549
      5 C3         -2.8332    3.1968   -3.0655 C.3       1 <0>         0.0531
      6 C4         -3.6770    2.7351   -1.8757 C.3       1 <0>         0.1043
      7 N1         -3.5723    3.7161   -0.7927 N.pl3     1 <0>        -0.4460
      8 C5         -4.4423    4.7147   -0.5315 C.2       1 <0>         0.2081
      9 N2         -4.0294    5.3943    0.5021 N.2       1 <0>        -0.4725
     10 C6         -2.8795    4.8655    0.9589 C.2       1 <0>         0.0770
     11 C7         -2.5695    3.7885    0.1478 C.2       1 <0>         0.0152
     12 C8         -1.3970    2.9002    0.2635 C.ar      1 <0>         0.0264
     13 C9         -1.5521    1.5103    0.3531 C.ar      1 <0>        -0.1667
     14 C10        -0.4291    0.7188    0.4645 C.ar      1 <0>         0.1067
     15 N3          0.7781    1.2524    0.4773 N.ar      1 <0>        -0.4786
     16 C11         0.9696    2.5555    0.3904 C.ar      1 <0>         0.1080
     17 C12        -0.0966    3.4223    0.2812 C.ar      1 <0>        -0.1451
     18 C13        -2.0913    5.3473    2.1171 C.ar      1 <0>        -0.0186
     19 C14        -1.4213    4.4374    2.9345 C.ar      1 <0>        -0.0728
     20 C15        -0.6850    4.8913    4.0092 C.ar      1 <0>        -0.1514
     21 C16        -0.6187    6.2480    4.2830 C.ar      1 <0>         0.1037
     22 C17        -1.2866    7.1556    3.4767 C.ar      1 <0>        -0.1528
     23 C18        -2.0215    6.7119    2.3968 C.ar      1 <0>        -0.0605
     24 F1          0.0990    6.6873    5.3400 F         1 <0>        -0.1378
     25 H1         -3.2027    0.8469   -6.2713 H         1 <0>         0.0935
     26 H2         -2.8961    2.2301   -7.3488 H         1 <0>         0.1088
     27 H3         -1.5391    1.2321   -6.7736 H         1 <0>         0.1085
     28 H4         -3.1374    4.2017   -3.3585 H         1 <0>         0.0810
     29 H5         -1.7804    3.2037   -2.7833 H         1 <0>         0.0774
     30 H6         -3.3145    1.7683   -1.5265 H         1 <0>         0.1056
     31 H7         -4.7188    2.6430   -2.1830 H         1 <0>         0.1163
     32 H8         -5.3404    4.9215   -1.0945 H         1 <0>         0.2150
     33 H9         -2.5366    1.0664    0.3391 H         1 <0>         0.1347
     34 H10        -0.5383   -0.3532    0.5378 H         1 <0>         0.1606
     35 H11         1.9757    2.9480    0.4045 H         1 <0>         0.1618
     36 H12         0.0676    4.4874    0.2108 H         1 <0>         0.1388
     37 H13        -1.4757    3.3794    2.7243 H         1 <0>         0.1282
     38 H14        -0.1628    4.1877    4.6406 H         1 <0>         0.1378
     39 H15        -1.2320    8.2121    3.6941 H         1 <0>         0.1394
     40 H16        -2.5423    7.4200    1.7693 H         1 <0>         0.1386
@<TRIPOS>BOND
     1    1    2 1
     2    1   25 1
     3    1   26 1
     4    1   27 1
     5    2    3 2
     6    2    4 1
     7    4    5 1
     8    5    6 1
     9    5   28 1
    10    5   29 1
    11    6    7 1
    12    6   30 1
    13    6   31 1
    14    7   11 1
    15    7    8 1
    16    8    9 2
    17    8   32 1
    18    9   10 1
    19   10   11 2
    20   10   18 1
    21   11   12 1
    22   12   17 ar
    23   12   13 ar
    24   13   14 ar
    25   13   33 1
    26   14   15 ar
    27   14   34 1
    28   15   16 ar
    29   16   17 ar
    30   16   35 1
    31   17   36 1
    32   18   23 ar
    33   18   19 ar
    34   19   20 ar
    35   19   37 1
    36   20   21 ar
    37   20   38 1
    38   21   22 ar
    39   21   24 1
    40   22   23 ar
    41   22   39 1
    42   23   40 1
@<TRIPOS>MOLECULE
ZINC03815706
   41    43     0     0     0
SMALL
USER_CHARGES

@<TRIPOS>ATOM
      1 C1         -2.5089    1.6534   -6.5088 C.3       1 <0>        -0.1474
      2 C2         -2.3552    2.5533   -5.3098 C.2       1 <0>         0.4680
      3 O1         -1.6249    3.5143   -5.3654 O.2       1 <0>        -0.5019
      4 O2         -3.0296    2.2873   -4.1802 O.3       1 <0>        -0.3514
      5 C3         -2.8332    3.1968   -3.0655 C.3       1 <0>         0.0477
      6 C4         -3.6770    2.7351   -1.8757 C.3       1 <0>         0.0919
      7 N1         -3.5723    3.7161   -0.7927 N.pl3     1 <0>        -0.3997
      8 C5         -4.4423    4.7147   -0.5315 C.cat     1 <0>         0.3051
      9 C6         -2.8795    4.8655    0.9589 C.2       1 <0>         0.1144
     10 C7         -2.5695    3.7885    0.1478 C.2       1 <0>         0.1019
     11 C8         -1.3970    2.9002    0.2635 C.ar      1 <0>        -0.0215
     12 C9         -1.5521    1.5103    0.3531 C.ar      1 <0>        -0.1509
     13 C10        -0.4291    0.7188    0.4645 C.ar      1 <0>         0.1176
     14 N2          0.7781    1.2524    0.4773 N.ar      1 <0>        -0.4570
     15 C11         0.9696    2.5555    0.3904 C.ar      1 <0>         0.1182
     16 C12        -0.0966    3.4223    0.2812 C.ar      1 <0>        -0.1316
     17 C13        -2.0913    5.3473    2.1171 C.ar      1 <0>        -0.0834
     18 C14        -1.4213    4.4374    2.9345 C.ar      1 <0>        -0.0451
     19 C15        -0.6850    4.8913    4.0092 C.ar      1 <0>        -0.1462
     20 C16        -0.6187    6.2480    4.2830 C.ar      1 <0>         0.1430
     21 C17        -1.2866    7.1556    3.4767 C.ar      1 <0>        -0.1469
     22 C18        -2.0215    6.7119    2.3968 C.ar      1 <0>        -0.0622
     23 F1          0.0990    6.6873    5.3400 F         1 <0>        -0.1205
     24 H1         -3.2027    0.8469   -6.2713 H         1 <0>         0.0963
     25 H2         -2.8961    2.2301   -7.3488 H         1 <0>         0.1138
     26 H3         -1.5391    1.2321   -6.7736 H         1 <0>         0.1137
     27 H4         -3.1374    4.2017   -3.3585 H         1 <0>         0.0856
     28 H5         -1.7804    3.2037   -2.7833 H         1 <0>         0.0850
     29 H6         -3.3145    1.7683   -1.5265 H         1 <0>         0.1332
     30 H7         -4.7188    2.6430   -2.1830 H         1 <0>         0.1417
     31 H8         -5.3404    4.9215   -1.0945 H         1 <0>         0.2681
     32 H9         -2.5366    1.0664    0.3391 H         1 <0>         0.1427
     33 H10        -0.5383   -0.3532    0.5378 H         1 <0>         0.1718
     34 H11         1.9757    2.9480    0.4045 H         1 <0>         0.1720
     35 H12         0.0676    4.4874    0.2108 H         1 <0>         0.1456
     36 H13        -1.4757    3.3794    2.7243 H         1 <0>         0.1389
     37 H14        -0.1628    4.1877    4.6406 H         1 <0>         0.1524
     38 H15        -1.2320    8.2121    3.6941 H         1 <0>         0.1528
     39 H16        -2.5423    7.4200    1.7693 H         1 <0>         0.1380
     40 N3         -4.0297    5.3948    0.5023 N.pl3     1 <0>        -0.4770
     41 H17        -4.5086    6.2085    0.9057 H         1 <0>         0.4834
@<TRIPOS>BOND
     1    1    2 1
     2    1   24 1
     3    1   25 1
     4    1   26 1
     5    2    3 2
     6    2    4 1
     7    4    5 1
     8    5    6 1
     9    5   27 1
    10    5   28 1
    11    6    7 1
    12    6   29 1
    13    6   30 1
    14    7   10 1
    15    7    8 1
    16    8   31 1
    17    8   40 2
    18    9   10 2
    19    9   17 1
    20    9   40 1
    21   10   11 1
    22   11   16 ar
    23   11   12 ar
    24   12   13 ar
    25   12   32 1
    26   13   14 ar
    27   13   33 1
    28   14   15 ar
    29   15   16 ar
    30   15   34 1
    31   16   35 1
    32   17   22 ar
    33   17   18 ar
    34   18   19 ar
    35   18   36 1
    36   19   20 ar
    37   19   37 1
    38   20   21 ar
    39   20   23 1
    40   21   22 ar
    41   21   38 1
    42   22   39 1
    43   40   41 1
@<TRIPOS>MOLECULE
ZINC03815707
   35    38     0     0     0
SMALL
USER_CHARGES

@<TRIPOS>ATOM
      1 C1         -1.1996    3.2845   -5.1525 C.ar      1 <0>        -0.0903
      2 C2         -1.5228    3.6471   -6.4438 C.ar      1 <0>        -0.1078
      3 C3         -2.8134    3.4695   -6.9129 C.ar      1 <0>        -0.0308
      4 C4         -3.7848    2.9227   -6.0917 C.ar      1 <0>        -0.1092
      5 C5         -3.4713    2.5521   -4.8003 C.ar      1 <0>        -0.0775
      6 C6         -2.1729    2.7287   -4.3226 C.ar      1 <0>         0.0001
      7 C7         -1.8305    2.3331   -2.9366 C.2       1 <0>         0.0779
      8 C8         -0.6265    1.8050   -2.5098 C.2       1 <0>         0.0344
      9 N1         -0.7599    1.5908   -1.1533 N.pl3     1 <0>        -0.4658
     10 C9         -2.0007    1.9841   -0.8022 C.2       1 <0>         0.2064
     11 N2         -2.6329    2.4223   -1.8622 N.2       1 <0>        -0.4637
     12 C10        -2.2053    1.7758    0.6864 C.3       1 <0>        -0.0436
     13 C11        -0.7737    1.6027    1.2477 C.3       1 <0>        -0.1289
     14 C12        -0.0127    1.0858    0.0080 C.3       1 <0>         0.0983
     15 C13         0.5625    1.5268   -3.3383 C.ar      1 <0>         0.0297
     16 C14         1.8437    1.8952   -2.9064 C.ar      1 <0>        -0.1667
     17 C15         2.9269    1.6106   -3.7100 C.ar      1 <0>         0.1062
     18 N3          2.7680    1.0107   -4.8750 N.ar      1 <0>        -0.4809
     19 C16         1.5791    0.6519   -5.3224 C.ar      1 <0>         0.1073
     20 C17         0.4416    0.8921   -4.5818 C.ar      1 <0>        -0.1468
     21 Cl1        -3.2151    3.9347   -8.5364 Cl        1 <0>        -0.0680
     22 H1         -0.1936    3.4272   -4.7862 H         1 <0>         0.1279
     23 H2         -0.7690    4.0744   -7.0884 H         1 <0>         0.1360
     24 H3         -4.7899    2.7863   -6.4626 H         1 <0>         0.1374
     25 H4         -4.2299    2.1263   -4.1603 H         1 <0>         0.1379
     26 H5         -2.6860    2.6473    1.1308 H         1 <0>         0.1031
     27 H6         -2.7990    0.8800    0.8680 H         1 <0>         0.1014
     28 H7         -0.7549    0.8671    2.0517 H         1 <0>         0.1069
     29 H8         -0.3683    2.5569    1.5844 H         1 <0>         0.0910
     30 H9          0.0021   -0.0041    0.0020 H         1 <0>         0.0943
     31 H10         1.0049    1.4762    0.0004 H         1 <0>         0.0929
     32 H11         1.9808    2.3904   -1.9564 H         1 <0>         0.1304
     33 H12         3.9189    1.8864   -3.3840 H         1 <0>         0.1596
     34 H13         1.4965    0.1636   -6.2821 H         1 <0>         0.1618
     35 H14        -0.5278    0.5954   -4.9540 H         1 <0>         0.1389
@<TRIPOS>BOND
     1    1    6 ar
     2    1    2 ar
     3    1   22 1
     4    2    3 ar
     5    2   23 1
     6    3    4 ar
     7    3   21 1
     8    4    5 ar
     9    4   24 1
    10    5    6 ar
    11    5   25 1
    12    6    7 1
    13    7   11 1
    14    7    8 2
    15    8    9 1
    16    8   15 1
    17    9   14 1
    18    9   10 1
    19   10   11 2
    20   10   12 1
    21   12   13 1
    22   12   26 1
    23   12   27 1
    24   13   14 1
    25   13   28 1
    26   13   29 1
    27   14   30 1
    28   14   31 1
    29   15   20 ar
    30   15   16 ar
    31   16   17 ar
    32   16   32 1
    33   17   18 ar
    34   17   33 1
    35   18   19 ar
    36   19   20 ar
    37   19   34 1
    38   20   35 1
@<TRIPOS>MOLECULE
ZINC03815707
   36    39     0     0     0
SMALL
USER_CHARGES

@<TRIPOS>ATOM
      1 C1         -1.1996    3.2845   -5.1525 C.ar      1 <0>        -0.0644
      2 C2         -1.5228    3.6471   -6.4438 C.ar      1 <0>        -0.1014
      3 C3         -2.8134    3.4695   -6.9129 C.ar      1 <0>        -0.0057
      4 C4         -3.7848    2.9227   -6.0917 C.ar      1 <0>        -0.1022
      5 C5         -3.4713    2.5521   -4.8003 C.ar      1 <0>        -0.0806
      6 C6         -2.1729    2.7287   -4.3226 C.ar      1 <0>        -0.0644
      7 C7         -1.8305    2.3331   -2.9366 C.2       1 <0>         0.1130
      8 C8         -0.6265    1.8050   -2.5098 C.2       1 <0>         0.1234
      9 N1         -0.7599    1.5908   -1.1533 N.pl3     1 <0>        -0.4138
     10 C9         -2.0007    1.9841   -0.8022 C.cat     1 <0>         0.2912
     11 C10        -2.2053    1.7758    0.6864 C.3       1 <0>        -0.0637
     12 C11        -0.7737    1.6027    1.2477 C.3       1 <0>        -0.1277
     13 C12        -0.0127    1.0858    0.0080 C.3       1 <0>         0.0840
     14 C13         0.5625    1.5268   -3.3383 C.ar      1 <0>        -0.0171
     15 C14         1.8437    1.8952   -2.9064 C.ar      1 <0>        -0.1485
     16 C15         2.9269    1.6106   -3.7100 C.ar      1 <0>         0.1167
     17 N2          2.7680    1.0107   -4.8750 N.ar      1 <0>        -0.4584
     18 C16         1.5791    0.6519   -5.3224 C.ar      1 <0>         0.1172
     19 C17         0.4416    0.8921   -4.5818 C.ar      1 <0>        -0.1339
     20 Cl1        -3.2151    3.9347   -8.5364 Cl        1 <0>        -0.0362
     21 H1         -0.1936    3.4272   -4.7862 H         1 <0>         0.1384
     22 H2         -0.7690    4.0744   -7.0884 H         1 <0>         0.1503
     23 H3         -4.7899    2.7863   -6.4626 H         1 <0>         0.1503
     24 H4         -4.2299    2.1263   -4.1603 H         1 <0>         0.1367
     25 H5         -2.6860    2.6473    1.1308 H         1 <0>         0.1320
     26 H6         -2.7990    0.8800    0.8680 H         1 <0>         0.1357
     27 H7         -0.7549    0.8671    2.0517 H         1 <0>         0.1321
     28 H8         -0.3683    2.5569    1.5844 H         1 <0>         0.1092
     29 H9          0.0021   -0.0041    0.0020 H         1 <0>         0.1261
     30 H10         1.0049    1.4762    0.0004 H         1 <0>         0.1241
     31 H11         1.9808    2.3904   -1.9564 H         1 <0>         0.1387
     32 H12         3.9189    1.8864   -3.3840 H         1 <0>         0.1710
     33 H13         1.4965    0.1636   -6.2821 H         1 <0>         0.1721
     34 H14        -0.5278    0.5954   -4.9540 H         1 <0>         0.1451
     35 N3         -2.6341    2.4227   -1.8622 N.pl3     1 <0>        -0.4670
     36 H15        -3.5966    2.7801   -1.8710 H         1 <0>         0.4776
@<TRIPOS>BOND
     1    1    6 ar
     2    1    2 ar
     3    1   21 1
     4    2    3 ar
     5    2   22 1
     6    3    4 ar
     7    3   20 1
     8    4    5 ar
     9    4   23 1
    10    5    6 ar
    11    5   24 1
    12    6    7 1
    13    7    8 2
    14    7   35 1
    15    8    9 1
    16    8   14 1
    17    9   13 1
    18    9   10 1
    19   10   11 1
    20   10   35 2
    21   11   12 1
    22   11   25 1
    23   11   26 1
    24   12   13 1
    25   12   27 1
    26   12   28 1
    27   13   29 1
    28   13   30 1
    29   14   19 ar
    30   14   15 ar
    31   15   16 ar
    32   15   31 1
    33   16   17 ar
    34   16   32 1
    35   17   18 ar
    36   18   19 ar
    37   18   33 1
    38   19   34 1
    39   35   36 1
@<TRIPOS>MOLECULE
ZINC03815709
   50    53     0     0     0
SMALL
USER_CHARGES

@<TRIPOS>ATOM
      1 C1         -5.6545    4.0270   -1.0396 C.3       1 <0>        -0.0486
      2 C2         -6.2211    6.1056    0.0653 C.3       1 <0>        -0.0430
      3 C3         -4.6945    4.5506    1.1207 C.3       1 <0>         0.0477
      4 C4         -3.4669    3.7113    0.8765 C.ar      1 <0>        -0.1615
      5 C5         -2.2135    4.2956    0.9187 C.ar      1 <0>        -0.0834
      6 C6         -1.0857    3.5330    0.6960 C.ar      1 <0>        -0.1148
      7 C7         -1.2112    2.1690    0.4276 C.ar      1 <0>         0.0336
      8 C8         -2.4788    1.5869    0.3812 C.ar      1 <0>        -0.0773
      9 C9         -3.5983    2.3599    0.6105 C.ar      1 <0>        -0.0866
     10 C10        -0.0069    1.3457    0.1875 C.2       1 <0>         0.2021
     11 N1         -0.0043    0.0089   -0.0833 N.2       1 <0>        -0.4364
     12 H1          1.5054    2.7311    0.3757 H         1 <0>         0.4299
     13 C11         1.3092   -0.3700   -0.2463 C.2       1 <0>         0.0658
     14 C12         2.0714    0.7712   -0.0554 C.2       1 <0>         0.0519
     15 N2          1.2313    1.7854    0.2010 N.pl3     1 <0>        -0.5044
     16 C13         3.5488    0.8574   -0.1283 C.ar      1 <0>        -0.0482
     17 C14         4.3370   -0.1354    0.4529 C.ar      1 <0>        -0.0554
     18 C15         5.7121   -0.0529    0.3786 C.ar      1 <0>        -0.1452
     19 C16         6.3104    1.0192   -0.2639 C.ar      1 <0>         0.1179
     20 C17         5.5314    2.0108   -0.8383 C.ar      1 <0>        -0.1486
     21 C18         4.1556    1.9347   -0.7735 C.ar      1 <0>        -0.0795
     22 F1          7.6575    1.0981   -0.3300 F         1 <0>        -0.1302
     23 C19         1.8069   -1.7240   -0.5535 C.ar      1 <0>         0.0330
     24 C20         2.7530   -1.9314   -1.5668 C.ar      1 <0>        -0.1518
     25 C21         3.1944   -3.2132   -1.8160 C.ar      1 <0>         0.1048
     26 N3          2.7305   -4.2368   -1.1236 N.ar      1 <0>        -0.4783
     27 C22         1.8354   -4.0872   -0.1650 C.ar      1 <0>         0.1034
     28 C23         1.3428   -2.8405    0.1556 C.ar      1 <0>        -0.1468
     29 H2         -6.4740    3.4954   -0.5560 H         1 <0>         0.1243
     30 H3         -6.0048    4.4595   -1.9767 H         1 <0>         0.1228
     31 H4         -4.8399    3.3316   -1.2424 H         1 <0>         0.1213
     32 H5         -5.8185    6.9214    0.6657 H         1 <0>         0.1217
     33 H6         -6.5594    6.4941   -0.8953 H         1 <0>         0.1230
     34 H7         -7.0612    5.6494    0.5889 H         1 <0>         0.1240
     35 H8         -5.4735    3.9333    1.5682 H         1 <0>         0.1387
     36 H9         -4.4465    5.3691    1.7965 H         1 <0>         0.1362
     37 H10        -2.1178    5.3512    1.1262 H         1 <0>         0.1376
     38 H11        -0.1079    3.9904    0.7289 H         1 <0>         0.1305
     39 H12        -2.5830    0.5329    0.1696 H         1 <0>         0.1506
     40 H13        -4.5796    1.9099    0.5785 H         1 <0>         0.1388
     41 H14         3.8717   -0.9693    0.9574 H         1 <0>         0.1360
     42 H15         6.3234   -0.8230    0.8254 H         1 <0>         0.1455
     43 H16         6.0022    2.8449   -1.3374 H         1 <0>         0.1436
     44 H17         3.5494    2.7082   -1.2212 H         1 <0>         0.1303
     45 H18         3.1335   -1.0992   -2.1404 H         1 <0>         0.1340
     46 H19         3.9262   -3.3830   -2.5918 H         1 <0>         0.1602
     47 H20         1.4839   -4.9538    0.3752 H         1 <0>         0.1607
     48 H21         0.6108   -2.7257    0.9414 H         1 <0>         0.1374
     49 N4         -5.1534    5.1104   -0.1679 N.4       1 <0>        -0.3971
     50 H22        -4.3623    5.5725   -0.6315 H         1 <0>         0.4300
@<TRIPOS>BOND
     1    1   29 1
     2    1   30 1
     3    1   31 1
     4    1   49 1
     5    2   32 1
     6    2   33 1
     7    2   34 1
     8    2   49 1
     9    3    4 1
    10    3   35 1
    11    3   36 1
    12    3   49 1
    13    4    9 ar
    14    4    5 ar
    15    5    6 ar
    16    5   37 1
    17    6    7 ar
    18    6   38 1
    19    7    8 ar
    20    7   10 1
    21    8    9 ar
    22    8   39 1
    23    9   40 1
    24   10   11 2
    25   10   15 1
    26   11   13 1
    27   12   15 1
    28   13   14 2
    29   13   23 1
    30   14   15 1
    31   14   16 1
    32   16   21 ar
    33   16   17 ar
    34   17   18 ar
    35   17   41 1
    36   18   19 ar
    37   18   42 1
    38   19   20 ar
    39   19   22 1
    40   20   21 ar
    41   20   43 1
    42   21   44 1
    43   23   28 ar
    44   23   24 ar
    45   24   25 ar
    46   24   45 1
    47   25   26 ar
    48   25   46 1
    49   26   27 ar
    50   27   28 ar
    51   27   47 1
    52   28   48 1
    53   49   50 1
@<TRIPOS>MOLECULE
ZINC03815709
   51    54     0     0     0
SMALL
USER_CHARGES

@<TRIPOS>ATOM
      1 C1         -5.6545    4.0270   -1.0396 C.3       1 <0>        -0.0506
      2 C2         -6.2211    6.1056    0.0653 C.3       1 <0>        -0.0449
      3 C3         -4.6945    4.5506    1.1207 C.3       1 <0>         0.0371
      4 C4         -3.4669    3.7113    0.8765 C.ar      1 <0>        -0.1161
      5 C5         -2.2135    4.2956    0.9187 C.ar      1 <0>        -0.0784
      6 C6         -1.0857    3.5330    0.6960 C.ar      1 <0>        -0.0751
      7 C7         -1.2112    2.1690    0.4276 C.ar      1 <0>        -0.0446
      8 C8         -2.4788    1.5869    0.3812 C.ar      1 <0>        -0.0741
      9 C9         -3.5983    2.3599    0.6105 C.ar      1 <0>        -0.0804
     10 C10        -0.0069    1.3457    0.1875 C.cat     1 <0>         0.3552
     11 N1         -0.0043    0.0089   -0.0833 N.pl3     1 <0>        -0.4982
     12 H1         -0.8062   -0.5847   -0.1508 H         1 <0>         0.4723
     13 C11         1.3092   -0.3700   -0.2463 C.2       1 <0>         0.1308
     14 C12         2.0708    0.7731   -0.0650 C.2       1 <0>         0.1267
     15 C13         3.5478    0.8607   -0.1448 C.ar      1 <0>        -0.0960
     16 C14         4.3396   -0.1313    0.4328 C.ar      1 <0>        -0.0406
     17 C15         5.7142   -0.0475    0.3521 C.ar      1 <0>        -0.1456
     18 C16         6.3085    1.0251   -0.2932 C.ar      1 <0>         0.1505
     19 C17         5.5260    2.0160   -0.8640 C.ar      1 <0>        -0.1476
     20 C18         4.1505    1.9386   -0.7928 C.ar      1 <0>        -0.0600
     21 F1          7.6552    1.1053   -0.3655 F         1 <0>        -0.1166
     22 C19         1.8069   -1.7240   -0.5535 C.ar      1 <0>        -0.0302
     23 C20         2.7530   -1.9314   -1.5668 C.ar      1 <0>        -0.1280
     24 C21         3.1944   -3.2132   -1.8160 C.ar      1 <0>         0.1202
     25 N2          2.7305   -4.2368   -1.1236 N.ar      1 <0>        -0.4527
     26 C22         1.8354   -4.0872   -0.1650 C.ar      1 <0>         0.1190
     27 C23         1.3428   -2.8405    0.1556 C.ar      1 <0>        -0.1474
     28 H2         -6.4740    3.4954   -0.5560 H         1 <0>         0.1282
     29 H3         -6.0048    4.4595   -1.9767 H         1 <0>         0.1287
     30 H4         -4.8399    3.3316   -1.2424 H         1 <0>         0.1159
     31 H5         -5.8185    6.9214    0.6657 H         1 <0>         0.1257
     32 H6         -6.5594    6.4941   -0.8953 H         1 <0>         0.1282
     33 H7         -7.0612    5.6494    0.5889 H         1 <0>         0.1279
     34 H8         -5.4735    3.9333    1.5682 H         1 <0>         0.1472
     35 H9         -4.4465    5.3691    1.7965 H         1 <0>         0.1459
     36 H10        -2.1178    5.3512    1.1262 H         1 <0>         0.1554
     37 H11        -0.1079    3.9904    0.7289 H         1 <0>         0.1446
     38 H12        -2.5830    0.5329    0.1696 H         1 <0>         0.1443
     39 H13        -4.5796    1.9099    0.5785 H         1 <0>         0.1545
     40 H14         3.8774   -0.9656    0.9394 H         1 <0>         0.1405
     41 H15         6.3283   -0.8170    0.7961 H         1 <0>         0.1554
     42 H16         5.9937    2.8505   -1.3653 H         1 <0>         0.1545
     43 H17         3.5415    2.7115   -1.2377 H         1 <0>         0.1371
     44 H18         3.1335   -1.0992   -2.1404 H         1 <0>         0.1468
     45 H19         3.9262   -3.3830   -2.5918 H         1 <0>         0.1743
     46 H20         1.4839   -4.9538    0.3752 H         1 <0>         0.1733
     47 H21         0.6108   -2.7257    0.9414 H         1 <0>         0.1419
     48 N3         -5.1534    5.1104   -0.1679 N.4       1 <0>        -0.3970
     49 H22        -4.3623    5.5725   -0.6315 H         1 <0>         0.4309
     50 N4          1.2311    1.7872    0.1954 N.pl3     1 <0>        -0.4678
     51 H23         1.5125    2.7585    0.3734 H         1 <0>         0.4790
@<TRIPOS>BOND
     1    1   28 1
     2    1   29 1
     3    1   30 1
     4    1   48 1
     5    2   31 1
     6    2   32 1
     7    2   33 1
     8    2   48 1
     9    3    4 1
    10    3   34 1
    11    3   35 1
    12    3   48 1
    13    4    9 ar
    14    4    5 ar
    15    5    6 ar
    16    5   36 1
    17    6    7 ar
    18    6   37 1
    19    7    8 ar
    20    7   10 1
    21    8    9 ar
    22    8   38 1
    23    9   39 1
    24   10   11 1
    25   10   50 2
    26   11   12 1
    27   11   13 1
    28   13   14 2
    29   13   22 1
    30   14   15 1
    31   14   50 1
    32   15   20 ar
    33   15   16 ar
    34   16   17 ar
    35   16   40 1
    36   17   18 ar
    37   17   41 1
    38   18   19 ar
    39   18   21 1
    40   19   20 ar
    41   19   42 1
    42   20   43 1
    43   22   27 ar
    44   22   23 ar
    45   23   24 ar
    46   23   44 1
    47   24   25 ar
    48   24   45 1
    49   25   26 ar
    50   26   27 ar
    51   26   46 1
    52   27   47 1
    53   48   49 1
    54   50   51 1
@<TRIPOS>MOLECULE
ZINC03815709
   50    53     0     0     0
SMALL
USER_CHARGES

@<TRIPOS>ATOM
      1 C1         -5.6545    4.0270   -1.0396 C.3       1 <0>        -0.0486
      2 C2         -6.2211    6.1056    0.0653 C.3       1 <0>        -0.0430
      3 C3         -4.6945    4.5506    1.1207 C.3       1 <0>         0.0477
      4 C4         -3.4669    3.7113    0.8765 C.ar      1 <0>        -0.1615
      5 C5         -2.2135    4.2956    0.9187 C.ar      1 <0>        -0.0834
      6 C6         -1.0857    3.5330    0.6960 C.ar      1 <0>        -0.1148
      7 C7         -1.2112    2.1690    0.4276 C.ar      1 <0>         0.0336
      8 C8         -2.4788    1.5869    0.3812 C.ar      1 <0>        -0.0773
      9 C9         -3.5983    2.3599    0.6105 C.ar      1 <0>        -0.0866
     10 C10        -0.0069    1.3457    0.1875 C.2       1 <0>         0.2021
     11 N1         -0.0043    0.0089   -0.0833 N.2       1 <0>        -0.4364
     12 H1          1.5054    2.7311    0.3757 H         1 <0>         0.4299
     13 C11         1.3092   -0.3700   -0.2463 C.2       1 <0>         0.0658
     14 C12         2.0714    0.7712   -0.0554 C.2       1 <0>         0.0519
     15 N2          1.2313    1.7854    0.2010 N.pl3     1 <0>        -0.5044
     16 C13         3.5488    0.8574   -0.1283 C.ar      1 <0>        -0.0482
     17 C14         4.3370   -0.1354    0.4529 C.ar      1 <0>        -0.0554
     18 C15         5.7121   -0.0529    0.3786 C.ar      1 <0>        -0.1452
     19 C16         6.3104    1.0192   -0.2639 C.ar      1 <0>         0.1179
     20 C17         5.5314    2.0108   -0.8383 C.ar      1 <0>        -0.1486
     21 C18         4.1556    1.9347   -0.7735 C.ar      1 <0>        -0.0795
     22 F1          7.6575    1.0981   -0.3300 F         1 <0>        -0.1302
     23 C19         1.8069   -1.7240   -0.5535 C.ar      1 <0>         0.0330
     24 C20         2.7530   -1.9314   -1.5668 C.ar      1 <0>        -0.1518
     25 C21         3.1944   -3.2132   -1.8160 C.ar      1 <0>         0.1048
     26 N3          2.7305   -4.2368   -1.1236 N.ar      1 <0>        -0.4783
     27 C22         1.8354   -4.0872   -0.1650 C.ar      1 <0>         0.1034
     28 C23         1.3428   -2.8405    0.1556 C.ar      1 <0>        -0.1468
     29 H2         -6.4740    3.4954   -0.5560 H         1 <0>         0.1243
     30 H3         -6.0048    4.4595   -1.9767 H         1 <0>         0.1228
     31 H4         -4.8399    3.3316   -1.2424 H         1 <0>         0.1213
     32 H5         -5.8185    6.9214    0.6657 H         1 <0>         0.1217
     33 H6         -6.5594    6.4941   -0.8953 H         1 <0>         0.1230
     34 H7         -7.0612    5.6494    0.5889 H         1 <0>         0.1240
     35 H8         -5.4735    3.9333    1.5682 H         1 <0>         0.1387
     36 H9         -4.4465    5.3691    1.7965 H         1 <0>         0.1362
     37 H10        -2.1178    5.3512    1.1262 H         1 <0>         0.1376
     38 H11        -0.1079    3.9904    0.7289 H         1 <0>         0.1305
     39 H12        -2.5830    0.5329    0.1696 H         1 <0>         0.1506
     40 H13        -4.5796    1.9099    0.5785 H         1 <0>         0.1388
     41 H14         3.8717   -0.9693    0.9574 H         1 <0>         0.1360
     42 H15         6.3234   -0.8230    0.8254 H         1 <0>         0.1455
     43 H16         6.0022    2.8449   -1.3374 H         1 <0>         0.1436
     44 H17         3.5494    2.7082   -1.2212 H         1 <0>         0.1303
     45 H18         3.1335   -1.0992   -2.1404 H         1 <0>         0.1340
     46 H19         3.9262   -3.3830   -2.5918 H         1 <0>         0.1602
     47 H20         1.4839   -4.9538    0.3752 H         1 <0>         0.1607
     48 H21         0.6108   -2.7257    0.9414 H         1 <0>         0.1374
     49 N4         -5.1534    5.1104   -0.1679 N.4       1 <0>        -0.3971
     50 H22        -4.3623    5.5725   -0.6315 H         1 <0>         0.4300
@<TRIPOS>BOND
     1    1   29 1
     2    1   30 1
     3    1   31 1
     4    1   49 1
     5    2   32 1
     6    2   33 1
     7    2   34 1
     8    2   49 1
     9    3    4 1
    10    3   35 1
    11    3   36 1
    12    3   49 1
    13    4    9 ar
    14    4    5 ar
    15    5    6 ar
    16    5   37 1
    17    6    7 ar
    18    6   38 1
    19    7    8 ar
    20    7   10 1
    21    8    9 ar
    22    8   39 1
    23    9   40 1
    24   10   11 2
    25   10   15 1
    26   11   13 1
    27   12   15 1
    28   13   14 2
    29   13   23 1
    30   14   15 1
    31   14   16 1
    32   16   21 ar
    33   16   17 ar
    34   17   18 ar
    35   17   41 1
    36   18   19 ar
    37   18   42 1
    38   19   20 ar
    39   19   22 1
    40   20   21 ar
    41   20   43 1
    42   21   44 1
    43   23   28 ar
    44   23   24 ar
    45   24   25 ar
    46   24   45 1
    47   25   26 ar
    48   25   46 1
    49   26   27 ar
    50   27   28 ar
    51   27   47 1
    52   28   48 1
    53   49   50 1
@<TRIPOS>MOLECULE
ZINC03815710
   46    49     0     0     0
SMALL
USER_CHARGES

@<TRIPOS>ATOM
      1 C1          0.2293    3.5517    0.0500 C.3       1 <0>        -0.6682
      2 S1         -1.1200    2.4528    0.5624 S.o2      1 <0>         2.6075
      3 O1         -2.2921    2.7329   -0.1905 O.2       1 <0>        -0.9487
      4 O2         -0.6436    1.1204    0.6923 O.2       1 <0>        -0.9453
      5 N1         -1.4879    2.9225    2.1072 N.pl3     1 <0>        -1.0577
      6 C2         -0.5251    2.8316    3.1114 C.ar      1 <0>         0.1511
      7 C3          0.2404    1.6769    3.2366 C.ar      1 <0>        -0.1497
      8 C4          1.1958    1.5860    4.2247 C.ar      1 <0>        -0.0494
      9 C5          1.3883    2.6506    5.1081 C.ar      1 <0>        -0.0274
     10 C6          0.6144    3.8067    4.9831 C.ar      1 <0>        -0.0935
     11 C7         -0.3358    3.8936    3.9896 C.ar      1 <0>        -0.1255
     12 C8          2.4078    2.5540    6.1727 C.2       1 <0>         0.2387
     13 N2          3.2212    1.4811    6.3938 N.2       1 <0>        -0.4473
     14 H1          2.2243    4.3785    7.1113 H         1 <0>         0.4287
     15 C9          4.0202    1.7925    7.4724 C.2       1 <0>         0.0603
     16 C10         3.6489    3.0632    7.8794 C.2       1 <0>         0.0304
     17 N3          2.6760    3.4879    7.0580 N.pl3     1 <0>        -0.5087
     18 C11         4.2300    3.8228    9.0111 C.ar      1 <0>        -0.0343
     19 C12         4.5562    3.1683   10.1986 C.ar      1 <0>        -0.0601
     20 C13         5.1017    3.8789   11.2477 C.ar      1 <0>        -0.1451
     21 C14         5.3160    5.2425   11.1267 C.ar      1 <0>         0.1090
     22 C15         4.9886    5.8981    9.9506 C.ar      1 <0>        -0.1475
     23 C16         4.4473    5.1954    8.8942 C.ar      1 <0>        -0.0835
     24 F1          5.8456    5.9351   12.1587 F         1 <0>        -0.1343
     25 C17         5.0582    0.9386    8.0789 C.ar      1 <0>         0.0407
     26 C18         6.3312    1.4483    8.3705 C.ar      1 <0>        -0.1533
     27 C19         7.2692    0.6153    8.9411 C.ar      1 <0>         0.1014
     28 N4          6.9853   -0.6469    9.2034 N.ar      1 <0>        -0.4828
     29 C20         5.8016   -1.1688    8.9409 C.ar      1 <0>         0.1011
     30 C21         4.8018   -0.4076    8.3748 C.ar      1 <0>        -0.1466
     31 H2         -0.0935    4.5890    0.1384 H         1 <0>         0.1313
     32 H3          1.0962    3.3851    0.6893 H         1 <0>         0.1306
     33 H4          0.4958    3.3411   -0.9858 H         1 <0>         0.1354
     34 H5         -2.3733    3.2608    2.3135 H         1 <0>         0.4290
     35 H6          0.0882    0.8525    2.5558 H         1 <0>         0.1662
     36 H7          1.7927    0.6908    4.3187 H         1 <0>         0.1471
     37 H8          0.7606    4.6314    5.6649 H         1 <0>         0.1243
     38 H9         -0.9347    4.7871    3.8927 H         1 <0>         0.1368
     39 H10         4.3857    2.1062   10.2954 H         1 <0>         0.1354
     40 H11         5.3581    3.3723   12.1665 H         1 <0>         0.1426
     41 H12         5.1573    6.9611    9.8611 H         1 <0>         0.1413
     42 H13         4.1918    5.7074    7.9783 H         1 <0>         0.1309
     43 H14         6.5719    2.4788    8.1548 H         1 <0>         0.1335
     44 H15         8.2516    0.9994    9.1730 H         1 <0>         0.1578
     45 H16         5.6140   -2.2069    9.1726 H         1 <0>         0.1590
     46 H17         3.8357   -0.8413    8.1628 H         1 <0>         0.1386
@<TRIPOS>BOND
     1    1    2 1
     2    1   31 1
     3    1   32 1
     4    1   33 1
     5    2    3 2
     6    2    4 2
     7    2    5 1
     8    5    6 1
     9    5   34 1
    10    6   11 ar
    11    6    7 ar
    12    7    8 ar
    13    7   35 1
    14    8    9 ar
    15    8   36 1
    16    9   10 ar
    17    9   12 1
    18   10   11 ar
    19   10   37 1
    20   11   38 1
    21   12   13 2
    22   12   17 1
    23   13   15 1
    24   14   17 1
    25   15   16 2
    26   15   25 1
    27   16   17 1
    28   16   18 1
    29   18   23 ar
    30   18   19 ar
    31   19   20 ar
    32   19   39 1
    33   20   21 ar
    34   20   40 1
    35   21   22 ar
    36   21   24 1
    37   22   23 ar
    38   22   41 1
    39   23   42 1
    40   25   30 ar
    41   25   26 ar
    42   26   27 ar
    43   26   43 1
    44   27   28 ar
    45   27   44 1
    46   28   29 ar
    47   29   30 ar
    48   29   45 1
    49   30   46 1
@<TRIPOS>MOLECULE
ZINC03815710
   47    50     0     0     0
SMALL
USER_CHARGES

@<TRIPOS>ATOM
      1 C1          0.2293    3.5517    0.0500 C.3       1 <0>        -0.6667
      2 S1         -1.1200    2.4528    0.5624 S.o2      1 <0>         2.6018
      3 O1         -2.2921    2.7329   -0.1905 O.2       1 <0>        -0.9317
      4 O2         -0.6436    1.1204    0.6923 O.2       1 <0>        -0.9426
      5 N1         -1.4879    2.9225    2.1072 N.pl3     1 <0>        -1.0603
      6 C2         -0.5251    2.8316    3.1114 C.ar      1 <0>         0.2041
      7 C3          0.2404    1.6769    3.2366 C.ar      1 <0>        -0.1488
      8 C4          1.1958    1.5860    4.2247 C.ar      1 <0>        -0.0426
      9 C5          1.3883    2.6506    5.1081 C.ar      1 <0>        -0.1091
     10 C6          0.6144    3.8067    4.9831 C.ar      1 <0>        -0.0512
     11 C7         -0.3358    3.8936    3.9896 C.ar      1 <0>        -0.1245
     12 C8          2.4078    2.5540    6.1727 C.cat     1 <0>         0.3957
     13 N2          3.2212    1.4811    6.3938 N.pl3     1 <0>        -0.5092
     14 H1          3.2349    0.6287    5.8711 H         1 <0>         0.4719
     15 C9          4.0202    1.7925    7.4724 C.2       1 <0>         0.1162
     16 C10         3.6553    3.0669    7.8736 C.2       1 <0>         0.1146
     17 C11         4.2410    3.8291    9.0012 C.ar      1 <0>        -0.0837
     18 C12         4.5710    3.1776   10.1893 C.ar      1 <0>        -0.0444
     19 C13         5.1207    3.8906   11.2345 C.ar      1 <0>        -0.1460
     20 C14         5.3356    5.2537   11.1090 C.ar      1 <0>         0.1425
     21 C15         5.0045    5.9064    9.9324 C.ar      1 <0>        -0.1471
     22 C16         4.4589    5.2012    8.8798 C.ar      1 <0>        -0.0626
     23 F1          5.8694    5.9487   12.1373 F         1 <0>        -0.1208
     24 C17         5.0582    0.9386    8.0789 C.ar      1 <0>        -0.0209
     25 C18         6.3312    1.4483    8.3705 C.ar      1 <0>        -0.1307
     26 C19         7.2692    0.6153    8.9411 C.ar      1 <0>         0.1167
     27 N3          6.9853   -0.6469    9.2034 N.ar      1 <0>        -0.4579
     28 C20         5.8016   -1.1688    8.9409 C.ar      1 <0>         0.1166
     29 C21         4.8018   -0.4076    8.3748 C.ar      1 <0>        -0.1480
     30 H2         -0.0935    4.5890    0.1384 H         1 <0>         0.1355
     31 H3          1.0962    3.3851    0.6893 H         1 <0>         0.1279
     32 H4          0.4958    3.3411   -0.9858 H         1 <0>         0.1420
     33 H5         -2.3733    3.2608    2.3135 H         1 <0>         0.4375
     34 H6          0.0882    0.8525    2.5558 H         1 <0>         0.1803
     35 H7          1.7927    0.6908    4.3187 H         1 <0>         0.1405
     36 H8          0.7606    4.6314    5.6649 H         1 <0>         0.1384
     37 H9         -0.9347    4.7871    3.8927 H         1 <0>         0.1546
     38 H10         4.4000    2.1159   10.2895 H         1 <0>         0.1399
     39 H11         5.3800    3.3863   12.1537 H         1 <0>         0.1526
     40 H12         5.1736    6.9690    9.8394 H         1 <0>         0.1524
     41 H13         4.2005    5.7109    7.9634 H         1 <0>         0.1378
     42 H14         6.5719    2.4788    8.1548 H         1 <0>         0.1459
     43 H15         8.2516    0.9994    9.1730 H         1 <0>         0.1717
     44 H16         5.6140   -2.2069    9.1726 H         1 <0>         0.1713
     45 H17         3.8357   -0.8413    8.1628 H         1 <0>         0.1427
     46 N4          2.6795    3.4907    7.0545 N.pl3     1 <0>        -0.4801
     47 H18         2.2166    4.4056    7.1085 H         1 <0>         0.4776
@<TRIPOS>BOND
     1    1    2 1
     2    1   30 1
     3    1   31 1
     4    1   32 1
     5    2    3 2
     6    2    4 2
     7    2    5 1
     8    5    6 1
     9    5   33 1
    10    6   11 ar
    11    6    7 ar
    12    7    8 ar
    13    7   34 1
    14    8    9 ar
    15    8   35 1
    16    9   10 ar
    17    9   12 1
    18   10   11 ar
    19   10   36 1
    20   11   37 1
    21   12   13 1
    22   12   46 2
    23   13   14 1
    24   13   15 1
    25   15   16 2
    26   15   24 1
    27   16   17 1
    28   16   46 1
    29   17   22 ar
    30   17   18 ar
    31   18   19 ar
    32   18   38 1
    33   19   20 ar
    34   19   39 1
    35   20   21 ar
    36   20   23 1
    37   21   22 ar
    38   21   40 1
    39   22   41 1
    40   24   29 ar
    41   24   25 ar
    42   25   26 ar
    43   25   42 1
    44   26   27 ar
    45   26   43 1
    46   27   28 ar
    47   28   29 ar
    48   28   44 1
    49   29   45 1
    50   46   47 1
@<TRIPOS>MOLECULE
ZINC03815710
   46    49     0     0     0
SMALL
USER_CHARGES

@<TRIPOS>ATOM
      1 C1          0.2293    3.5517    0.0500 C.3       1 <0>        -0.6682
      2 S1         -1.1200    2.4528    0.5624 S.o2      1 <0>         2.6075
      3 O1         -2.2921    2.7329   -0.1905 O.2       1 <0>        -0.9487
      4 O2         -0.6436    1.1204    0.6923 O.2       1 <0>        -0.9453
      5 N1         -1.4879    2.9225    2.1072 N.pl3     1 <0>        -1.0577
      6 C2         -0.5251    2.8316    3.1114 C.ar      1 <0>         0.1511
      7 C3          0.2404    1.6769    3.2366 C.ar      1 <0>        -0.1497
      8 C4          1.1958    1.5860    4.2247 C.ar      1 <0>        -0.0494
      9 C5          1.3883    2.6506    5.1081 C.ar      1 <0>        -0.0274
     10 C6          0.6144    3.8067    4.9831 C.ar      1 <0>        -0.0935
     11 C7         -0.3358    3.8936    3.9896 C.ar      1 <0>        -0.1255
     12 C8          2.4078    2.5540    6.1727 C.2       1 <0>         0.2387
     13 N2          3.2212    1.4811    6.3938 N.2       1 <0>        -0.4473
     14 H1          2.2243    4.3785    7.1113 H         1 <0>         0.4287
     15 C9          4.0202    1.7925    7.4724 C.2       1 <0>         0.0603
     16 C10         3.6489    3.0632    7.8794 C.2       1 <0>         0.0304
     17 N3          2.6760    3.4879    7.0580 N.pl3     1 <0>        -0.5087
     18 C11         4.2300    3.8228    9.0111 C.ar      1 <0>        -0.0343
     19 C12         4.5562    3.1683   10.1986 C.ar      1 <0>        -0.0601
     20 C13         5.1017    3.8789   11.2477 C.ar      1 <0>        -0.1451
     21 C14         5.3160    5.2425   11.1267 C.ar      1 <0>         0.1090
     22 C15         4.9886    5.8981    9.9506 C.ar      1 <0>        -0.1475
     23 C16         4.4473    5.1954    8.8942 C.ar      1 <0>        -0.0835
     24 F1          5.8456    5.9351   12.1587 F         1 <0>        -0.1343
     25 C17         5.0582    0.9386    8.0789 C.ar      1 <0>         0.0407
     26 C18         6.3312    1.4483    8.3705 C.ar      1 <0>        -0.1533
     27 C19         7.2692    0.6153    8.9411 C.ar      1 <0>         0.1014
     28 N4          6.9853   -0.6469    9.2034 N.ar      1 <0>        -0.4828
     29 C20         5.8016   -1.1688    8.9409 C.ar      1 <0>         0.1011
     30 C21         4.8018   -0.4076    8.3748 C.ar      1 <0>        -0.1466
     31 H2         -0.0935    4.5890    0.1384 H         1 <0>         0.1313
     32 H3          1.0962    3.3851    0.6893 H         1 <0>         0.1306
     33 H4          0.4958    3.3411   -0.9858 H         1 <0>         0.1354
     34 H5         -2.3733    3.2608    2.3135 H         1 <0>         0.4290
     35 H6          0.0882    0.8525    2.5558 H         1 <0>         0.1662
     36 H7          1.7927    0.6908    4.3187 H         1 <0>         0.1471
     37 H8          0.7606    4.6314    5.6649 H         1 <0>         0.1243
     38 H9         -0.9347    4.7871    3.8927 H         1 <0>         0.1368
     39 H10         4.3857    2.1062   10.2954 H         1 <0>         0.1354
     40 H11         5.3581    3.3723   12.1665 H         1 <0>         0.1426
     41 H12         5.1573    6.9611    9.8611 H         1 <0>         0.1413
     42 H13         4.1918    5.7074    7.9783 H         1 <0>         0.1309
     43 H14         6.5719    2.4788    8.1548 H         1 <0>         0.1335
     44 H15         8.2516    0.9994    9.1730 H         1 <0>         0.1578
     45 H16         5.6140   -2.2069    9.1726 H         1 <0>         0.1590
     46 H17         3.8357   -0.8413    8.1628 H         1 <0>         0.1386
@<TRIPOS>BOND
     1    1    2 1
     2    1   31 1
     3    1   32 1
     4    1   33 1
     5    2    3 2
     6    2    4 2
     7    2    5 1
     8    5    6 1
     9    5   34 1
    10    6   11 ar
    11    6    7 ar
    12    7    8 ar
    13    7   35 1
    14    8    9 ar
    15    8   36 1
    16    9   10 ar
    17    9   12 1
    18   10   11 ar
    19   10   37 1
    20   11   38 1
    21   12   13 2
    22   12   17 1
    23   13   15 1
    24   14   17 1
    25   15   16 2
    26   15   25 1
    27   16   17 1
    28   16   18 1
    29   18   23 ar
    30   18   19 ar
    31   19   20 ar
    32   19   39 1
    33   20   21 ar
    34   20   40 1
    35   21   22 ar
    36   21   24 1
    37   22   23 ar
    38   22   41 1
    39   23   42 1
    40   25   30 ar
    41   25   26 ar
    42   26   27 ar
    43   26   43 1
    44   27   28 ar
    45   27   44 1
    46   28   29 ar
    47   29   30 ar
    48   29   45 1
    49   30   46 1
@<TRIPOS>MOLECULE
ZINC03815711
   35    38     0     0     0
SMALL
USER_CHARGES

@<TRIPOS>ATOM
      1 C1         -1.1996    3.2845   -5.1524 C.ar      1 <0>        -0.0734
      2 C2         -1.5222    3.6468   -6.4438 C.ar      1 <0>        -0.1511
      3 C3         -2.8136    3.4688   -6.9136 C.ar      1 <0>         0.1034
      4 C4         -3.7856    2.9220   -6.0913 C.ar      1 <0>        -0.1526
      5 C5         -3.4716    2.5521   -4.8000 C.ar      1 <0>        -0.0605
      6 C6         -2.1731    2.7288   -4.3227 C.ar      1 <0>        -0.0161
      7 C7         -1.8306    2.3332   -2.9366 C.2       1 <0>         0.0811
      8 C8         -0.6266    1.8051   -2.5100 C.2       1 <0>         0.0321
      9 N1         -0.7599    1.5908   -1.1533 N.pl3     1 <0>        -0.4659
     10 C9         -2.0006    1.9841   -0.8022 C.2       1 <0>         0.2064
     11 N2         -2.6329    2.4223   -1.8623 N.2       1 <0>        -0.4646
     12 C10        -2.2053    1.7759    0.6864 C.3       1 <0>        -0.0436
     13 C11        -0.7737    1.6027    1.2477 C.3       1 <0>        -0.1289
     14 C12        -0.0127    1.0858    0.0080 C.3       1 <0>         0.0984
     15 C13         0.5622    1.5265   -3.3386 C.ar      1 <0>         0.0302
     16 C14         1.8436    1.8944   -2.9068 C.ar      1 <0>        -0.1670
     17 C15         2.9265    1.6108   -3.7112 C.ar      1 <0>         0.1063
     18 N3          2.7672    1.0110   -4.8762 N.ar      1 <0>        -0.4813
     19 C16         1.5783    0.6517   -5.3231 C.ar      1 <0>         0.1071
     20 C17         0.4410    0.8918   -4.5822 C.ar      1 <0>        -0.1475
     21 F1         -3.1260    3.8299   -8.1774 F         1 <0>        -0.1378
     22 H1         -0.1938    3.4275   -4.7858 H         1 <0>         0.1286
     23 H2         -0.7681    4.0738   -7.0883 H         1 <0>         0.1382
     24 H3         -4.7908    2.7855   -6.4619 H         1 <0>         0.1396
     25 H4         -4.2300    2.1266   -4.1596 H         1 <0>         0.1387
     26 H5         -2.6860    2.6474    1.1308 H         1 <0>         0.1030
     27 H6         -2.7990    0.8800    0.8680 H         1 <0>         0.1013
     28 H7         -0.7549    0.8671    2.0517 H         1 <0>         0.1068
     29 H8         -0.3683    2.5569    1.5844 H         1 <0>         0.0910
     30 H9          0.0021   -0.0041    0.0020 H         1 <0>         0.0942
     31 H10         1.0049    1.4762    0.0004 H         1 <0>         0.0928
     32 H11         1.9810    2.3896   -1.9569 H         1 <0>         0.1305
     33 H12         3.9185    1.8870   -3.3857 H         1 <0>         0.1595
     34 H13         1.4954    0.1632   -6.2827 H         1 <0>         0.1618
     35 H14        -0.5285    0.5951   -4.9541 H         1 <0>         0.1392
@<TRIPOS>BOND
     1    1    6 ar
     2    1    2 ar
     3    1   22 1
     4    2    3 ar
     5    2   23 1
     6    3    4 ar
     7    3   21 1
     8    4    5 ar
     9    4   24 1
    10    5    6 ar
    11    5   25 1
    12    6    7 1
    13    7   11 1
    14    7    8 2
    15    8    9 1
    16    8   15 1
    17    9   14 1
    18    9   10 1
    19   10   11 2
    20   10   12 1
    21   12   13 1
    22   12   26 1
    23   12   27 1
    24   13   14 1
    25   13   28 1
    26   13   29 1
    27   14   30 1
    28   14   31 1
    29   15   20 ar
    30   15   16 ar
    31   16   17 ar
    32   16   32 1
    33   17   18 ar
    34   17   33 1
    35   18   19 ar
    36   19   20 ar
    37   19   34 1
    38   20   35 1
@<TRIPOS>MOLECULE
ZINC03815711
   36    39     0     0     0
SMALL
USER_CHARGES

@<TRIPOS>ATOM
      1 C1         -1.1996    3.2845   -5.1524 C.ar      1 <0>        -0.0468
      2 C2         -1.5222    3.6468   -6.4438 C.ar      1 <0>        -0.1457
      3 C3         -2.8136    3.4688   -6.9136 C.ar      1 <0>         0.1423
      4 C4         -3.7856    2.9220   -6.0913 C.ar      1 <0>        -0.1465
      5 C5         -3.4716    2.5521   -4.8000 C.ar      1 <0>        -0.0626
      6 C6         -2.1731    2.7288   -4.3227 C.ar      1 <0>        -0.0810
      7 C7         -1.8306    2.3332   -2.9366 C.2       1 <0>         0.1164
      8 C8         -0.6266    1.8051   -2.5100 C.2       1 <0>         0.1211
      9 N1         -0.7599    1.5908   -1.1533 N.pl3     1 <0>        -0.4135
     10 C9         -2.0006    1.9841   -0.8022 C.cat     1 <0>         0.2907
     11 C10        -2.2053    1.7759    0.6864 C.3       1 <0>        -0.0637
     12 C11        -0.7737    1.6027    1.2477 C.3       1 <0>        -0.1277
     13 C12        -0.0127    1.0858    0.0080 C.3       1 <0>         0.0840
     14 C13         0.5622    1.5265   -3.3386 C.ar      1 <0>        -0.0166
     15 C14         1.8436    1.8944   -2.9068 C.ar      1 <0>        -0.1487
     16 C15         2.9265    1.6108   -3.7112 C.ar      1 <0>         0.1168
     17 N2          2.7672    1.0110   -4.8762 N.ar      1 <0>        -0.4588
     18 C16         1.5783    0.6517   -5.3231 C.ar      1 <0>         0.1171
     19 C17         0.4410    0.8918   -4.5822 C.ar      1 <0>        -0.1346
     20 F1         -3.1260    3.8299   -8.1774 F         1 <0>        -0.1205
     21 H1         -0.1938    3.4275   -4.7858 H         1 <0>         0.1393
     22 H2         -0.7681    4.0738   -7.0883 H         1 <0>         0.1530
     23 H3         -4.7908    2.7855   -6.4619 H         1 <0>         0.1529
     24 H4         -4.2300    2.1266   -4.1596 H         1 <0>         0.1377
     25 H5         -2.6860    2.6474    1.1308 H         1 <0>         0.1319
     26 H6         -2.7990    0.8800    0.8680 H         1 <0>         0.1356
     27 H7         -0.7549    0.8671    2.0517 H         1 <0>         0.1320
     28 H8         -0.3683    2.5569    1.5844 H         1 <0>         0.1091
     29 H9          0.0021   -0.0041    0.0020 H         1 <0>         0.1260
     30 H10         1.0049    1.4762    0.0004 H         1 <0>         0.1240
     31 H11         1.9810    2.3896   -1.9569 H         1 <0>         0.1387
     32 H12         3.9185    1.8870   -3.3857 H         1 <0>         0.1709
     33 H13         1.4954    0.1632   -6.2827 H         1 <0>         0.1720
     34 H14        -0.5285    0.5951   -4.9541 H         1 <0>         0.1454
     35 N3         -2.6341    2.4227   -1.8623 N.pl3     1 <0>        -0.4675
     36 H15        -3.5966    2.7801   -1.8711 H         1 <0>         0.4775
@<TRIPOS>BOND
     1    1    6 ar
     2    1    2 ar
     3    1   21 1
     4    2    3 ar
     5    2   22 1
     6    3    4 ar
     7    3   20 1
     8    4    5 ar
     9    4   23 1
    10    5    6 ar
    11    5   24 1
    12    6    7 1
    13    7    8 2
    14    7   35 1
    15    8    9 1
    16    8   14 1
    17    9   13 1
    18    9   10 1
    19   10   11 1
    20   10   35 2
    21   11   12 1
    22   11   25 1
    23   11   26 1
    24   12   13 1
    25   12   27 1
    26   12   28 1
    27   13   29 1
    28   13   30 1
    29   14   19 ar
    30   14   15 ar
    31   15   16 ar
    32   15   31 1
    33   16   17 ar
    34   16   32 1
    35   17   18 ar
    36   18   19 ar
    37   18   33 1
    38   19   34 1
    39   35   36 1
@<TRIPOS>MOLECULE
ZINC03815712
   44    47     0     0     0
SMALL
USER_CHARGES

@<TRIPOS>ATOM
      1 C1         -0.0153    1.0649   -0.0073 C.ar      1 <0>        -0.0863
      2 C2         -1.2202    1.7364   -0.0030 C.ar      1 <0>        -0.1469
      3 C3         -1.2439    3.1218    0.0067 C.ar      1 <0>         0.1059
      4 C4         -0.0586    3.8395    0.0014 C.ar      1 <0>        -0.1448
      5 C5          1.1514    3.1771   -0.0081 C.ar      1 <0>        -0.0642
      6 C6          1.1804    1.7827   -0.0126 C.ar      1 <0>        -0.0290
      7 C7          2.4773    1.0665   -0.0225 C.2       1 <0>         0.0157
      8 C8          3.6338    1.4742   -0.6629 C.2       1 <0>         0.0562
      9 N1          4.5772    0.5057   -0.4035 N.2       1 <0>        -0.4594
     10 H1          2.1034   -0.6199    1.1519 H         1 <0>         0.4273
     11 C9          3.9901   -0.4311    0.3711 C.2       1 <0>         0.2113
     12 N2          2.7509   -0.0950    0.5994 N.pl3     1 <0>        -0.5136
     13 C10         4.6634   -1.6746    0.8921 C.3       1 <0>        -0.0026
     14 C11         6.1295   -1.3681    1.2043 C.3       1 <0>        -0.1028
     15 C12         6.8131   -2.6306    1.7333 C.3       1 <0>        -0.1205
     16 C13         6.7367   -3.7332    0.6754 C.3       1 <0>        -0.1229
     17 C14         5.2706   -4.0398    0.3632 C.3       1 <0>        -0.1183
     18 C15         4.5870   -2.7773   -0.1658 C.3       1 <0>        -0.1102
     19 C16         3.8163    2.6958   -1.4703 C.ar      1 <0>         0.0433
     20 C17         2.8577    3.0844   -2.4157 C.ar      1 <0>        -0.1560
     21 C18         3.0667    4.2358   -3.1442 C.ar      1 <0>         0.1007
     22 N3          4.1551    4.9615   -2.9681 N.ar      1 <0>        -0.4839
     23 C19         5.0852    4.6293   -2.0924 C.ar      1 <0>         0.1005
     24 C20         4.9559    3.4969   -1.3173 C.ar      1 <0>        -0.1475
     25 F1         -2.4264    3.7750    0.0156 F         1 <0>        -0.1350
     26 H2          0.0022   -0.0150   -0.0111 H         1 <0>         0.1298
     27 H3         -2.1467    1.1813   -0.0030 H         1 <0>         0.1406
     28 H4         -0.0821    4.9192    0.0046 H         1 <0>         0.1420
     29 H5          2.0747    3.7374   -0.0126 H         1 <0>         0.1351
     30 H6          4.1603   -2.0069    1.8002 H         1 <0>         0.0851
     31 H7          6.6326   -1.0358    0.2962 H         1 <0>         0.0796
     32 H8          6.1839   -0.5825    1.9580 H         1 <0>         0.0639
     33 H9          6.3100   -2.9628    2.6414 H         1 <0>         0.0614
     34 H10         7.8576   -2.4122    1.9557 H         1 <0>         0.0671
     35 H11         7.2237   -4.6326    1.0522 H         1 <0>         0.0634
     36 H12         7.2398   -3.4010   -0.2327 H         1 <0>         0.0649
     37 H13         4.7675   -4.3720    1.2713 H         1 <0>         0.0628
     38 H14         5.2162   -4.8253   -0.3905 H         1 <0>         0.0665
     39 H15         3.5425   -2.9957   -0.3882 H         1 <0>         0.0602
     40 H16         5.0901   -2.4451   -1.0739 H         1 <0>         0.0736
     41 H17         1.9670    2.4931   -2.5684 H         1 <0>         0.1332
     42 H18         2.3320    4.5458   -3.8726 H         1 <0>         0.1574
     43 H19         5.9598    5.2533   -1.9820 H         1 <0>         0.1584
     44 H20         5.7210    3.2312   -0.6028 H         1 <0>         0.1379
@<TRIPOS>BOND
     1    1    6 ar
     2    1    2 ar
     3    1   26 1
     4    2    3 ar
     5    2   27 1
     6    3    4 ar
     7    3   25 1
     8    4    5 ar
     9    4   28 1
    10    5    6 ar
    11    5   29 1
    12    6    7 1
    13    7   12 1
    14    7    8 2
    15    8    9 1
    16    8   19 1
    17    9   11 2
    18   10   12 1
    19   11   13 1
    20   11   12 1
    21   13   18 1
    22   13   14 1
    23   13   30 1
    24   14   15 1
    25   14   31 1
    26   14   32 1
    27   15   16 1
    28   15   33 1
    29   15   34 1
    30   16   17 1
    31   16   35 1
    32   16   36 1
    33   17   18 1
    34   17   37 1
    35   17   38 1
    36   18   39 1
    37   18   40 1
    38   19   24 ar
    39   19   20 ar
    40   20   21 ar
    41   20   41 1
    42   21   22 ar
    43   21   42 1
    44   22   23 ar
    45   23   24 ar
    46   23   43 1
    47   24   44 1
@<TRIPOS>MOLECULE
ZINC03815712
   45    48     0     0     0
SMALL
USER_CHARGES

@<TRIPOS>ATOM
      1 C1         -0.0126    1.0758    0.0080 C.ar      1 <0>        -0.0628
      2 C2         -1.2158    1.7504    0.0173 C.ar      1 <0>        -0.1468
      3 C3         -1.2359    3.1358    0.0297 C.ar      1 <0>         0.1426
      4 C4         -0.0488    3.8505    0.0222 C.ar      1 <0>        -0.1460
      5 C5          1.1595    3.1851    0.0076 C.ar      1 <0>        -0.0466
      6 C6          1.1849    1.7906    0.0004 C.ar      1 <0>        -0.0827
      7 C7          2.4799    1.0711   -0.0149 C.2       1 <0>         0.1104
      8 C8          3.6338    1.4742   -0.6629 C.2       1 <0>         0.1085
      9 N1          4.5772    0.5057   -0.4035 N.pl3     1 <0>        -0.5022
     10 H1          5.5228    0.4977   -0.7288 H         1 <0>         0.4716
     11 C9          3.9901   -0.4311    0.3711 C.cat     1 <0>         0.3429
     12 C10         4.6634   -1.6746    0.8921 C.3       1 <0>        -0.0403
     13 C11         6.1295   -1.3681    1.2043 C.3       1 <0>        -0.1217
     14 C12         6.8131   -2.6306    1.7333 C.3       1 <0>        -0.1197
     15 C13         6.7367   -3.7332    0.6754 C.3       1 <0>        -0.1296
     16 C14         5.2706   -4.0398    0.3632 C.3       1 <0>        -0.1208
     17 C15         4.5870   -2.7773   -0.1658 C.3       1 <0>        -0.1166
     18 C16         3.8163    2.6958   -1.4703 C.ar      1 <0>        -0.0195
     19 C17         2.8577    3.0844   -2.4157 C.ar      1 <0>        -0.1328
     20 C18         3.0667    4.2358   -3.1442 C.ar      1 <0>         0.1170
     21 N2          4.1551    4.9615   -2.9681 N.ar      1 <0>        -0.4579
     22 C19         5.0852    4.6293   -2.0924 C.ar      1 <0>         0.1171
     23 C20         4.9559    3.4969   -1.3173 C.ar      1 <0>        -0.1492
     24 F1         -2.4167    3.7920    0.0436 F         1 <0>        -0.1205
     25 H2          0.0021   -0.0041    0.0020 H         1 <0>         0.1374
     26 H3         -2.1437    1.1977    0.0191 H         1 <0>         0.1527
     27 H4         -0.0695    4.9303    0.0275 H         1 <0>         0.1528
     28 H5          2.0842    3.7430    0.0014 H         1 <0>         0.1398
     29 H6          4.1603   -2.0069    1.8002 H         1 <0>         0.1296
     30 H7          6.6326   -1.0358    0.2962 H         1 <0>         0.0714
     31 H8          6.1839   -0.5825    1.9580 H         1 <0>         0.0808
     32 H9          6.3100   -2.9628    2.6414 H         1 <0>         0.0741
     33 H10         7.8576   -2.4122    1.9557 H         1 <0>         0.0807
     34 H11         7.2237   -4.6326    1.0522 H         1 <0>         0.0769
     35 H12         7.2398   -3.4010   -0.2327 H         1 <0>         0.0676
     36 H13         4.7675   -4.3720    1.2713 H         1 <0>         0.0733
     37 H14         5.2162   -4.8253   -0.3905 H         1 <0>         0.0804
     38 H15         3.5425   -2.9957   -0.3882 H         1 <0>         0.0774
     39 H16         5.0901   -2.4451   -1.0739 H         1 <0>         0.0764
     40 H17         1.9670    2.4931   -2.5684 H         1 <0>         0.1461
     41 H18         2.3320    4.5458   -3.8726 H         1 <0>         0.1721
     42 H19         5.9598    5.2533   -1.9820 H         1 <0>         0.1714
     43 H20         5.7210    3.2312   -0.6028 H         1 <0>         0.1418
     44 N3          2.7521   -0.0926    0.6042 N.pl3     1 <0>        -0.4768
     45 H21         2.0877   -0.6309    1.1725 H         1 <0>         0.4798
@<TRIPOS>BOND
     1    1    6 ar
     2    1    2 ar
     3    1   25 1
     4    2    3 ar
     5    2   26 1
     6    3    4 ar
     7    3   24 1
     8    4    5 ar
     9    4   27 1
    10    5    6 ar
    11    5   28 1
    12    6    7 1
    13    7    8 2
    14    7   44 1
    15    8    9 1
    16    8   18 1
    17    9   10 1
    18    9   11 1
    19   11   12 1
    20   11   44 2
    21   12   17 1
    22   12   13 1
    23   12   29 1
    24   13   14 1
    25   13   30 1
    26   13   31 1
    27   14   15 1
    28   14   32 1
    29   14   33 1
    30   15   16 1
    31   15   34 1
    32   15   35 1
    33   16   17 1
    34   16   36 1
    35   16   37 1
    36   17   38 1
    37   17   39 1
    38   18   23 ar
    39   18   19 ar
    40   19   20 ar
    41   19   40 1
    42   20   21 ar
    43   20   41 1
    44   21   22 ar
    45   22   23 ar
    46   22   42 1
    47   23   43 1
    48   44   45 1
@<TRIPOS>MOLECULE
ZINC03815712
   44    47     0     0     0
SMALL
USER_CHARGES

@<TRIPOS>ATOM
      1 C1         -0.0153    1.0649   -0.0073 C.ar      1 <0>        -0.0863
      2 C2         -1.2202    1.7364   -0.0030 C.ar      1 <0>        -0.1469
      3 C3         -1.2439    3.1218    0.0067 C.ar      1 <0>         0.1059
      4 C4         -0.0586    3.8395    0.0014 C.ar      1 <0>        -0.1448
      5 C5          1.1514    3.1771   -0.0081 C.ar      1 <0>        -0.0642
      6 C6          1.1804    1.7827   -0.0126 C.ar      1 <0>        -0.0290
      7 C7          2.4773    1.0665   -0.0225 C.2       1 <0>         0.0157
      8 C8          3.6338    1.4742   -0.6629 C.2       1 <0>         0.0562
      9 N1          4.5772    0.5057   -0.4035 N.2       1 <0>        -0.4594
     10 H1          2.1034   -0.6199    1.1519 H         1 <0>         0.4273
     11 C9          3.9901   -0.4311    0.3711 C.2       1 <0>         0.2113
     12 N2          2.7509   -0.0950    0.5994 N.pl3     1 <0>        -0.5136
     13 C10         4.6634   -1.6746    0.8921 C.3       1 <0>        -0.0026
     14 C11         6.1295   -1.3681    1.2043 C.3       1 <0>        -0.1028
     15 C12         6.8131   -2.6306    1.7333 C.3       1 <0>        -0.1205
     16 C13         6.7367   -3.7332    0.6754 C.3       1 <0>        -0.1229
     17 C14         5.2706   -4.0398    0.3632 C.3       1 <0>        -0.1183
     18 C15         4.5870   -2.7773   -0.1658 C.3       1 <0>        -0.1102
     19 C16         3.8163    2.6958   -1.4703 C.ar      1 <0>         0.0433
     20 C17         2.8577    3.0844   -2.4157 C.ar      1 <0>        -0.1560
     21 C18         3.0667    4.2358   -3.1442 C.ar      1 <0>         0.1007
     22 N3          4.1551    4.9615   -2.9681 N.ar      1 <0>        -0.4839
     23 C19         5.0852    4.6293   -2.0924 C.ar      1 <0>         0.1005
     24 C20         4.9559    3.4969   -1.3173 C.ar      1 <0>        -0.1475
     25 F1         -2.4264    3.7750    0.0156 F         1 <0>        -0.1350
     26 H2          0.0022   -0.0150   -0.0111 H         1 <0>         0.1298
     27 H3         -2.1467    1.1813   -0.0030 H         1 <0>         0.1406
     28 H4         -0.0821    4.9192    0.0046 H         1 <0>         0.1420
     29 H5          2.0747    3.7374   -0.0126 H         1 <0>         0.1351
     30 H6          4.1603   -2.0069    1.8002 H         1 <0>         0.0851
     31 H7          6.6326   -1.0358    0.2962 H         1 <0>         0.0796
     32 H8          6.1839   -0.5825    1.9580 H         1 <0>         0.0639
     33 H9          6.3100   -2.9628    2.6414 H         1 <0>         0.0614
     34 H10         7.8576   -2.4122    1.9557 H         1 <0>         0.0671
     35 H11         7.2237   -4.6326    1.0522 H         1 <0>         0.0634
     36 H12         7.2398   -3.4010   -0.2327 H         1 <0>         0.0649
     37 H13         4.7675   -4.3720    1.2713 H         1 <0>         0.0628
     38 H14         5.2162   -4.8253   -0.3905 H         1 <0>         0.0665
     39 H15         3.5425   -2.9957   -0.3882 H         1 <0>         0.0602
     40 H16         5.0901   -2.4451   -1.0739 H         1 <0>         0.0736
     41 H17         1.9670    2.4931   -2.5684 H         1 <0>         0.1332
     42 H18         2.3320    4.5458   -3.8726 H         1 <0>         0.1574
     43 H19         5.9598    5.2533   -1.9820 H         1 <0>         0.1584
     44 H20         5.7210    3.2312   -0.6028 H         1 <0>         0.1379
@<TRIPOS>BOND
     1    1    6 ar
     2    1    2 ar
     3    1   26 1
     4    2    3 ar
     5    2   27 1
     6    3    4 ar
     7    3   25 1
     8    4    5 ar
     9    4   28 1
    10    5    6 ar
    11    5   29 1
    12    6    7 1
    13    7   12 1
    14    7    8 2
    15    8    9 1
    16    8   19 1
    17    9   11 2
    18   10   12 1
    19   11   13 1
    20   11   12 1
    21   13   18 1
    22   13   14 1
    23   13   30 1
    24   14   15 1
    25   14   31 1
    26   14   32 1
    27   15   16 1
    28   15   33 1
    29   15   34 1
    30   16   17 1
    31   16   35 1
    32   16   36 1
    33   17   18 1
    34   17   37 1
    35   17   38 1
    36   18   39 1
    37   18   40 1
    38   19   24 ar
    39   19   20 ar
    40   20   21 ar
    41   20   41 1
    42   21   22 ar
    43   21   42 1
    44   22   23 ar
    45   23   24 ar
    46   23   43 1
    47   24   44 1
@<TRIPOS>MOLECULE
ZINC03815713
   48    51     0     0     0
SMALL
USER_CHARGES

@<TRIPOS>ATOM
      1 C1         -2.4633    0.4007   -8.7902 C.ar      1 <0>        -0.1565
      2 C2         -1.6550    1.5218   -8.7517 C.ar      1 <0>        -0.0793
      3 C3         -1.5825    2.2833   -7.6013 C.ar      1 <0>        -0.1514
      4 C4         -2.3216    1.9222   -6.4841 C.ar      1 <0>         0.1272
      5 C5         -3.1274    0.7936   -6.5235 C.ar      1 <0>        -0.2096
      6 C6         -3.2012    0.0390   -7.6783 C.ar      1 <0>        -0.0801
      7 O1         -2.2520    2.6697   -5.3513 O.3       1 <0>        -0.3132
      8 C7         -3.0402    2.2385   -4.2401 C.3       1 <0>         0.0649
      9 C8         -2.8332    3.1968   -3.0655 C.3       1 <0>        -0.1356
     10 C9         -3.6770    2.7351   -1.8757 C.3       1 <0>         0.1052
     11 N1         -3.5714    3.7156   -0.7923 N.pl3     1 <0>        -0.4450
     12 C10        -4.4407    4.7146   -0.5305 C.2       1 <0>         0.2046
     13 N2         -4.0270    5.3935    0.5033 N.2       1 <0>        -0.4750
     14 C11        -2.8775    4.8637    0.9597 C.2       1 <0>         0.0735
     15 C12        -2.5684    3.7868    0.1481 C.2       1 <0>         0.0160
     16 C13        -1.3965    2.8976    0.2632 C.ar      1 <0>         0.0306
     17 C14        -1.5526    1.5078    0.3520 C.ar      1 <0>        -0.1680
     18 C15        -0.4302    0.7154    0.4628 C.ar      1 <0>         0.1063
     19 N3          0.7774    1.2482    0.4759 N.ar      1 <0>        -0.4792
     20 C16         0.9699    2.5512    0.3896 C.ar      1 <0>         0.1082
     21 C17        -0.0957    3.4187    0.2811 C.ar      1 <0>        -0.1451
     22 C18        -2.0887    5.3444    2.1180 C.ar      1 <0>        -0.0170
     23 C19        -1.4192    4.4336    2.9349 C.ar      1 <0>        -0.0736
     24 C20        -0.6824    4.8865    4.0096 C.ar      1 <0>        -0.1513
     25 C21        -0.6151    6.2430    4.2841 C.ar      1 <0>         0.1027
     26 C22        -1.2825    7.1515    3.4782 C.ar      1 <0>        -0.1527
     27 C23        -2.0179    6.7088    2.3983 C.ar      1 <0>        -0.0613
     28 F1          0.1031    6.6813    5.3411 F         1 <0>        -0.1381
     29 H1         -2.5186   -0.1933   -9.6905 H         1 <0>         0.1254
     30 H2         -1.0802    1.8027   -9.6218 H         1 <0>         0.1309
     31 H3         -0.9508    3.1587   -7.5716 H         1 <0>         0.1308
     32 H4         -3.7002    0.5080   -5.6536 H         1 <0>         0.1264
     33 H5         -3.8318   -0.8372   -7.7109 H         1 <0>         0.1259
     34 H6         -2.7360    1.2336   -3.9471 H         1 <0>         0.0663
     35 H7         -4.0930    2.2316   -4.5222 H         1 <0>         0.0679
     36 H8         -3.1374    4.2017   -3.3585 H         1 <0>         0.0863
     37 H9         -1.7804    3.2037   -2.7833 H         1 <0>         0.0826
     38 H10        -3.3150    1.7679   -1.5270 H         1 <0>         0.0969
     39 H11        -4.7189    2.6438   -2.1828 H         1 <0>         0.1060
     40 H12        -5.3387    4.9224   -1.0933 H         1 <0>         0.2127
     41 H13        -2.5374    1.0646    0.3378 H         1 <0>         0.1331
     42 H14        -0.5401   -0.3565    0.5355 H         1 <0>         0.1594
     43 H15         1.9762    2.9429    0.4040 H         1 <0>         0.1612
     44 H16         0.0693    4.4838    0.2113 H         1 <0>         0.1384
     45 H17        -1.4744    3.3758    2.7242 H         1 <0>         0.1278
     46 H18        -0.1606    4.1823    4.6406 H         1 <0>         0.1374
     47 H19        -1.2270    8.2078    3.6961 H         1 <0>         0.1391
     48 H20        -2.5382    7.4175    1.7712 H         1 <0>         0.1383
@<TRIPOS>BOND
     1    1    6 ar
     2    1    2 ar
     3    1   29 1
     4    2    3 ar
     5    2   30 1
     6    3    4 ar
     7    3   31 1
     8    4    5 ar
     9    4    7 1
    10    5    6 ar
    11    5   32 1
    12    6   33 1
    13    7    8 1
    14    8    9 1
    15    8   34 1
    16    8   35 1
    17    9   10 1
    18    9   36 1
    19    9   37 1
    20   10   11 1
    21   10   38 1
    22   10   39 1
    23   11   15 1
    24   11   12 1
    25   12   13 2
    26   12   40 1
    27   13   14 1
    28   14   15 2
    29   14   22 1
    30   15   16 1
    31   16   21 ar
    32   16   17 ar
    33   17   18 ar
    34   17   41 1
    35   18   19 ar
    36   18   42 1
    37   19   20 ar
    38   20   21 ar
    39   20   43 1
    40   21   44 1
    41   22   27 ar
    42   22   23 ar
    43   23   24 ar
    44   23   45 1
    45   24   25 ar
    46   24   46 1
    47   25   26 ar
    48   25   28 1
    49   26   27 ar
    50   26   47 1
    51   27   48 1
@<TRIPOS>MOLECULE
ZINC03815713
   49    52     0     0     0
SMALL
USER_CHARGES

@<TRIPOS>ATOM
      1 C1         -2.4633    0.4007   -8.7902 C.ar      1 <0>        -0.1493
      2 C2         -1.6550    1.5218   -8.7517 C.ar      1 <0>        -0.0773
      3 C3         -1.5825    2.2833   -7.6013 C.ar      1 <0>        -0.1477
      4 C4         -2.3216    1.9222   -6.4841 C.ar      1 <0>         0.1197
      5 C5         -3.1274    0.7936   -6.5235 C.ar      1 <0>        -0.2084
      6 C6         -3.2012    0.0390   -7.6783 C.ar      1 <0>        -0.0797
      7 O1         -2.2520    2.6697   -5.3513 O.3       1 <0>        -0.3137
      8 C7         -3.0402    2.2385   -4.2401 C.3       1 <0>         0.0637
      9 C8         -2.8332    3.1968   -3.0655 C.3       1 <0>        -0.1405
     10 C9         -3.6770    2.7351   -1.8757 C.3       1 <0>         0.0924
     11 N1         -3.5714    3.7156   -0.7923 N.pl3     1 <0>        -0.3978
     12 C10        -4.4407    4.7146   -0.5305 C.cat     1 <0>         0.3004
     13 C11        -2.8775    4.8637    0.9597 C.2       1 <0>         0.1117
     14 C12        -2.5684    3.7868    0.1481 C.2       1 <0>         0.1023
     15 C13        -1.3965    2.8976    0.2632 C.ar      1 <0>        -0.0176
     16 C14        -1.5526    1.5078    0.3520 C.ar      1 <0>        -0.1523
     17 C15        -0.4302    0.7154    0.4628 C.ar      1 <0>         0.1172
     18 N2          0.7774    1.2482    0.4759 N.ar      1 <0>        -0.4576
     19 C16         0.9699    2.5512    0.3896 C.ar      1 <0>         0.1184
     20 C17        -0.0957    3.4187    0.2811 C.ar      1 <0>        -0.1315
     21 C18        -2.0887    5.3444    2.1180 C.ar      1 <0>        -0.0822
     22 C19        -1.4192    4.4336    2.9349 C.ar      1 <0>        -0.0458
     23 C20        -0.6824    4.8865    4.0096 C.ar      1 <0>        -0.1463
     24 C21        -0.6151    6.2430    4.2841 C.ar      1 <0>         0.1422
     25 C22        -1.2825    7.1515    3.4782 C.ar      1 <0>        -0.1468
     26 C23        -2.0179    6.7088    2.3983 C.ar      1 <0>        -0.0628
     27 F1          0.1031    6.6813    5.3411 F         1 <0>        -0.1207
     28 H1         -2.5186   -0.1933   -9.6905 H         1 <0>         0.1288
     29 H2         -1.0802    1.8027   -9.6218 H         1 <0>         0.1341
     30 H3         -0.9508    3.1587   -7.5716 H         1 <0>         0.1315
     31 H4         -3.7002    0.5080   -5.6536 H         1 <0>         0.1249
     32 H5         -3.8318   -0.8372   -7.7109 H         1 <0>         0.1283
     33 H6         -2.7360    1.2336   -3.9471 H         1 <0>         0.0708
     34 H7         -4.0930    2.2316   -4.5222 H         1 <0>         0.0717
     35 H8         -3.1374    4.2017   -3.3585 H         1 <0>         0.0926
     36 H9         -1.7804    3.2037   -2.7833 H         1 <0>         0.0916
     37 H10        -3.3150    1.7679   -1.5270 H         1 <0>         0.1248
     38 H11        -4.7189    2.6438   -2.1828 H         1 <0>         0.1318
     39 H12        -5.3387    4.9224   -1.0933 H         1 <0>         0.2659
     40 H13        -2.5374    1.0646    0.3378 H         1 <0>         0.1412
     41 H14        -0.5401   -0.3565    0.5355 H         1 <0>         0.1706
     42 H15         1.9762    2.9429    0.4040 H         1 <0>         0.1715
     43 H16         0.0693    4.4838    0.2113 H         1 <0>         0.1451
     44 H17        -1.4744    3.3758    2.7242 H         1 <0>         0.1385
     45 H18        -0.1606    4.1823    4.6406 H         1 <0>         0.1521
     46 H19        -1.2270    8.2078    3.6961 H         1 <0>         0.1525
     47 H20        -2.5382    7.4175    1.7712 H         1 <0>         0.1377
     48 N3         -4.0273    5.3940    0.5035 N.pl3     1 <0>        -0.4785
     49 H21        -4.5055    6.2080    0.9073 H         1 <0>         0.4822
@<TRIPOS>BOND
     1    1    6 ar
     2    1    2 ar
     3    1   28 1
     4    2    3 ar
     5    2   29 1
     6    3    4 ar
     7    3   30 1
     8    4    5 ar
     9    4    7 1
    10    5    6 ar
    11    5   31 1
    12    6   32 1
    13    7    8 1
    14    8    9 1
    15    8   33 1
    16    8   34 1
    17    9   10 1
    18    9   35 1
    19    9   36 1
    20   10   11 1
    21   10   37 1
    22   10   38 1
    23   11   14 1
    24   11   12 1
    25   12   39 1
    26   12   48 2
    27   13   14 2
    28   13   21 1
    29   13   48 1
    30   14   15 1
    31   15   20 ar
    32   15   16 ar
    33   16   17 ar
    34   16   40 1
    35   17   18 ar
    36   17   41 1
    37   18   19 ar
    38   19   20 ar
    39   19   42 1
    40   20   43 1
    41   21   26 ar
    42   21   22 ar
    43   22   23 ar
    44   22   44 1
    45   23   24 ar
    46   23   45 1
    47   24   25 ar
    48   24   27 1
    49   25   26 ar
    50   25   46 1
    51   26   47 1
    52   48   49 1
@<TRIPOS>MOLECULE
ZINC03815714
   48    51     0     0     0
SMALL
USER_CHARGES

@<TRIPOS>ATOM
      1 C1         -3.6957    8.0139   -4.1675 C.ar      1 <0>        -0.0604
      2 C2         -3.5476    8.8439   -5.2593 C.ar      1 <0>        -0.1455
      3 C3         -2.3022    9.0067   -5.8449 C.ar      1 <0>         0.1085
      4 C4         -1.1993    8.3414   -5.3342 C.ar      1 <0>        -0.1475
      5 C5         -1.3363    7.5129   -4.2398 C.ar      1 <0>        -0.0836
      6 C6         -2.5876    7.3459   -3.6470 C.ar      1 <0>        -0.0328
      7 C7         -2.7403    6.4568   -2.4717 C.2       1 <0>         0.0208
      8 C8         -3.4921    6.7169   -1.3397 C.2       1 <0>         0.0581
      9 N1         -3.3441    5.6199   -0.5212 N.2       1 <0>        -0.4581
     10 H1         -1.5540    4.8084   -2.9590 H         1 <0>         0.4279
     11 C9         -2.5243    4.7534   -1.1534 C.2       1 <0>         0.1731
     12 N2         -2.1644    5.2525   -2.3032 N.pl3     1 <0>        -0.5051
     13 C10        -2.0915    3.4147   -0.6132 C.3       1 <0>         0.2325
     14 C11        -1.1820    2.7565   -1.6151 C.3       1 <0>        -0.1161
     15 C12        -1.4319    1.2349   -1.5782 C.3       1 <0>        -0.1117
     16 C13        -0.7510    0.5877   -0.4665 C.3       1 <0>        -0.1155
     17 C14        -1.2422    1.1032    0.9017 C.3       1 <0>        -0.1282
     18 C15        -0.5621    2.4152    1.1896 C.3       1 <0>        -0.1153
     19 C16        -1.4102    3.6249    0.7525 C.3       1 <0>        -0.1302
     20 O1         -3.2476    2.5951   -0.4299 O.3       1 <0>        -0.5366
     21 C17        -4.2983    7.9227   -1.0688 C.ar      1 <0>         0.0432
     22 C18        -3.7671    9.2042   -1.2675 C.ar      1 <0>        -0.1540
     23 C19        -4.5579   10.3027   -1.0069 C.ar      1 <0>         0.1016
     24 N3         -5.7938   10.1593   -0.5662 N.ar      1 <0>        -0.4834
     25 C20        -6.3314    8.9715   -0.3602 C.ar      1 <0>         0.1007
     26 C21        -5.6149    7.8187   -0.6000 C.ar      1 <0>        -0.1478
     27 F1         -2.1632    9.8163   -6.9174 F         1 <0>        -0.1344
     28 H2         -4.6674    7.8844   -3.7144 H         1 <0>         0.1343
     29 H3         -4.4043    9.3645   -5.6610 H         1 <0>         0.1423
     30 H4         -0.2307    8.4714   -5.7940 H         1 <0>         0.1413
     31 H5         -0.4762    6.9943   -3.8430 H         1 <0>         0.1307
     32 H6         -0.1431    2.9633   -1.3578 H         1 <0>         0.0841
     33 H7         -1.3949    3.1384   -2.6136 H         1 <0>         0.0590
     34 H8         -1.0791    0.7965   -2.5117 H         1 <0>         0.0583
     35 H9         -2.5034    1.0567   -1.4878 H         1 <0>         0.0890
     36 H10        -0.9263   -0.4867   -0.5226 H         1 <0>         0.0605
     37 H11         0.3194    0.7752   -0.5508 H         1 <0>         0.0548
     38 H12        -2.3223    1.2475    0.8723 H         1 <0>         0.0864
     39 H13        -0.9874    0.3816    1.6778 H         1 <0>         0.0595
     40 H14         0.3906    2.4429    0.6608 H         1 <0>         0.0604
     41 H15        -0.3727    2.4858    2.2607 H         1 <0>         0.0641
     42 H16        -0.7664    4.5024    0.6929 H         1 <0>         0.0684
     43 H17        -2.1785    3.8037    1.5048 H         1 <0>         0.0776
     44 H18        -3.8857    2.9512    0.2034 H         1 <0>         0.3828
     45 H19        -2.7551    9.3291   -1.6235 H         1 <0>         0.1327
     46 H20        -4.1591   11.2945   -1.1608 H         1 <0>         0.1575
     47 H21        -7.3466    8.9020    0.0016 H         1 <0>         0.1585
     48 H22        -6.0613    6.8502   -0.4295 H         1 <0>         0.1374
@<TRIPOS>BOND
     1    1    6 ar
     2    1    2 ar
     3    1   28 1
     4    2    3 ar
     5    2   29 1
     6    3    4 ar
     7    3   27 1
     8    4    5 ar
     9    4   30 1
    10    5    6 ar
    11    5   31 1
    12    6    7 1
    13    7   12 1
    14    7    8 2
    15    8    9 1
    16    8   21 1
    17    9   11 2
    18   10   12 1
    19   11   13 1
    20   11   12 1
    21   13   19 1
    22   13   14 1
    23   13   20 1
    24   14   15 1
    25   14   32 1
    26   14   33 1
    27   15   16 1
    28   15   34 1
    29   15   35 1
    30   16   17 1
    31   16   36 1
    32   16   37 1
    33   17   18 1
    34   17   38 1
    35   17   39 1
    36   18   19 1
    37   18   40 1
    38   18   41 1
    39   19   42 1
    40   19   43 1
    41   20   44 1
    42   21   26 ar
    43   21   22 ar
    44   22   23 ar
    45   22   45 1
    46   23   24 ar
    47   23   46 1
    48   24   25 ar
    49   25   26 ar
    50   25   47 1
    51   26   48 1
@<TRIPOS>MOLECULE
ZINC03815714
   49    52     0     0     0
SMALL
USER_CHARGES

@<TRIPOS>ATOM
      1 C1         -3.6796    8.0249   -4.1618 C.ar      1 <0>        -0.0432
      2 C2         -3.5264    8.8577   -5.2508 C.ar      1 <0>        -0.1463
      3 C3         -2.2790    9.0194   -5.8322 C.ar      1 <0>         0.1439
      4 C4         -1.1790    8.3503   -5.3201 C.ar      1 <0>        -0.1469
      5 C5         -1.3211    7.5190   -4.2284 C.ar      1 <0>        -0.0615
      6 C6         -2.5745    7.3530   -3.6398 C.ar      1 <0>        -0.0864
      7 C7         -2.7327    6.4610   -2.4675 C.2       1 <0>         0.1120
      8 C8         -3.4921    6.7169   -1.3397 C.2       1 <0>         0.1155
      9 N1         -3.3441    5.6199   -0.5212 N.pl3     1 <0>        -0.4996
     10 H1         -3.7660    5.4891    0.3760 H         1 <0>         0.4710
     11 C9         -2.5243    4.7534   -1.1534 C.cat     1 <0>         0.2977
     12 C10        -2.0915    3.4147   -0.6132 C.3       1 <0>         0.2038
     13 C11        -1.1820    2.7565   -1.6151 C.3       1 <0>        -0.1215
     14 C12        -1.4319    1.2349   -1.5782 C.3       1 <0>        -0.1106
     15 C13        -0.7510    0.5877   -0.4665 C.3       1 <0>        -0.1242
     16 C14        -1.2422    1.1032    0.9017 C.3       1 <0>        -0.1313
     17 C15        -0.5621    2.4152    1.1896 C.3       1 <0>        -0.1152
     18 C16        -1.4102    3.6249    0.7525 C.3       1 <0>        -0.1452
     19 O1         -3.2476    2.5951   -0.4299 O.3       1 <0>        -0.5114
     20 C17        -4.2983    7.9227   -1.0688 C.ar      1 <0>        -0.0213
     21 C18        -3.7671    9.2042   -1.2675 C.ar      1 <0>        -0.1300
     22 C19        -4.5579   10.3027   -1.0069 C.ar      1 <0>         0.1177
     23 N2         -5.7938   10.1593   -0.5662 N.ar      1 <0>        -0.4571
     24 C20        -6.3314    8.9715   -0.3602 C.ar      1 <0>         0.1171
     25 C21        -5.6149    7.8187   -0.6000 C.ar      1 <0>        -0.1484
     26 F1         -2.1350    9.8317   -6.9020 F         1 <0>        -0.1201
     27 H2         -4.6529    7.8963   -3.7119 H         1 <0>         0.1395
     28 H3         -4.3808    9.3813   -5.6535 H         1 <0>         0.1531
     29 H4         -0.2088    8.4795   -5.7766 H         1 <0>         0.1532
     30 H5         -0.4633    6.9974   -3.8305 H         1 <0>         0.1382
     31 H6         -0.1431    2.9633   -1.3578 H         1 <0>         0.1023
     32 H7         -1.3949    3.1384   -2.6136 H         1 <0>         0.0654
     33 H8         -1.0791    0.7965   -2.5117 H         1 <0>         0.0723
     34 H9         -2.5034    1.0567   -1.4878 H         1 <0>         0.0912
     35 H10        -0.9263   -0.4867   -0.5226 H         1 <0>         0.0707
     36 H11         0.3194    0.7752   -0.5508 H         1 <0>         0.0621
     37 H12        -2.3223    1.2475    0.8723 H         1 <0>         0.0833
     38 H13        -0.9874    0.3816    1.6778 H         1 <0>         0.0704
     39 H14         0.3906    2.4429    0.6608 H         1 <0>         0.0717
     40 H15        -0.3727    2.4858    2.2607 H         1 <0>         0.0774
     41 H16        -0.7664    4.5024    0.6929 H         1 <0>         0.0822
     42 H17        -2.1785    3.8037    1.5048 H         1 <0>         0.0811
     43 H18        -3.8857    2.9512    0.2034 H         1 <0>         0.3816
     44 H19        -2.7551    9.3291   -1.6235 H         1 <0>         0.1458
     45 H20        -4.1591   11.2945   -1.1608 H         1 <0>         0.1722
     46 H21        -7.3466    8.9020    0.0016 H         1 <0>         0.1717
     47 H22        -6.0613    6.8502   -0.4295 H         1 <0>         0.1420
     48 N3         -2.1595    5.2547   -2.3011 N.pl3     1 <0>        -0.4649
     49 H23        -1.5318    4.7992   -2.9739 H         1 <0>         0.4791
@<TRIPOS>BOND
     1    1    6 ar
     2    1    2 ar
     3    1   27 1
     4    2    3 ar
     5    2   28 1
     6    3    4 ar
     7    3   26 1
     8    4    5 ar
     9    4   29 1
    10    5    6 ar
    11    5   30 1
    12    6    7 1
    13    7    8 2
    14    7   48 1
    15    8    9 1
    16    8   20 1
    17    9   10 1
    18    9   11 1
    19   11   12 1
    20   11   48 2
    21   12   18 1
    22   12   13 1
    23   12   19 1
    24   13   14 1
    25   13   31 1
    26   13   32 1
    27   14   15 1
    28   14   33 1
    29   14   34 1
    30   15   16 1
    31   15   35 1
    32   15   36 1
    33   16   17 1
    34   16   37 1
    35   16   38 1
    36   17   18 1
    37   17   39 1
    38   17   40 1
    39   18   41 1
    40   18   42 1
    41   19   43 1
    42   20   25 ar
    43   20   21 ar
    44   21   22 ar
    45   21   44 1
    46   22   23 ar
    47   22   45 1
    48   23   24 ar
    49   24   25 ar
    50   24   46 1
    51   25   47 1
    52   48   49 1
@<TRIPOS>MOLECULE
ZINC03815714
   48    51     0     0     0
SMALL
USER_CHARGES

@<TRIPOS>ATOM
      1 C1         -3.6957    8.0139   -4.1675 C.ar      1 <0>        -0.0604
      2 C2         -3.5476    8.8439   -5.2593 C.ar      1 <0>        -0.1455
      3 C3         -2.3022    9.0067   -5.8449 C.ar      1 <0>         0.1085
      4 C4         -1.1993    8.3414   -5.3342 C.ar      1 <0>        -0.1475
      5 C5         -1.3363    7.5129   -4.2398 C.ar      1 <0>        -0.0836
      6 C6         -2.5876    7.3459   -3.6470 C.ar      1 <0>        -0.0328
      7 C7         -2.7403    6.4568   -2.4717 C.2       1 <0>         0.0208
      8 C8         -3.4921    6.7169   -1.3397 C.2       1 <0>         0.0581
      9 N1         -3.3441    5.6199   -0.5212 N.2       1 <0>        -0.4581
     10 H1         -1.5540    4.8084   -2.9590 H         1 <0>         0.4279
     11 C9         -2.5243    4.7534   -1.1534 C.2       1 <0>         0.1731
     12 N2         -2.1644    5.2525   -2.3032 N.pl3     1 <0>        -0.5051
     13 C10        -2.0915    3.4147   -0.6132 C.3       1 <0>         0.2325
     14 C11        -1.1820    2.7565   -1.6151 C.3       1 <0>        -0.1161
     15 C12        -1.4319    1.2349   -1.5782 C.3       1 <0>        -0.1117
     16 C13        -0.7510    0.5877   -0.4665 C.3       1 <0>        -0.1155
     17 C14        -1.2422    1.1032    0.9017 C.3       1 <0>        -0.1282
     18 C15        -0.5621    2.4152    1.1896 C.3       1 <0>        -0.1153
     19 C16        -1.4102    3.6249    0.7525 C.3       1 <0>        -0.1302
     20 O1         -3.2476    2.5951   -0.4299 O.3       1 <0>        -0.5366
     21 C17        -4.2983    7.9227   -1.0688 C.ar      1 <0>         0.0432
     22 C18        -3.7671    9.2042   -1.2675 C.ar      1 <0>        -0.1540
     23 C19        -4.5579   10.3027   -1.0069 C.ar      1 <0>         0.1016
     24 N3         -5.7938   10.1593   -0.5662 N.ar      1 <0>        -0.4834
     25 C20        -6.3314    8.9715   -0.3602 C.ar      1 <0>         0.1007
     26 C21        -5.6149    7.8187   -0.6000 C.ar      1 <0>        -0.1478
     27 F1         -2.1632    9.8163   -6.9174 F         1 <0>        -0.1344
     28 H2         -4.6674    7.8844   -3.7144 H         1 <0>         0.1343
     29 H3         -4.4043    9.3645   -5.6610 H         1 <0>         0.1423
     30 H4         -0.2307    8.4714   -5.7940 H         1 <0>         0.1413
     31 H5         -0.4762    6.9943   -3.8430 H         1 <0>         0.1307
     32 H6         -0.1431    2.9633   -1.3578 H         1 <0>         0.0841
     33 H7         -1.3949    3.1384   -2.6136 H         1 <0>         0.0590
     34 H8         -1.0791    0.7965   -2.5117 H         1 <0>         0.0583
     35 H9         -2.5034    1.0567   -1.4878 H         1 <0>         0.0890
     36 H10        -0.9263   -0.4867   -0.5226 H         1 <0>         0.0605
     37 H11         0.3194    0.7752   -0.5508 H         1 <0>         0.0548
     38 H12        -2.3223    1.2475    0.8723 H         1 <0>         0.0864
     39 H13        -0.9874    0.3816    1.6778 H         1 <0>         0.0595
     40 H14         0.3906    2.4429    0.6608 H         1 <0>         0.0604
     41 H15        -0.3727    2.4858    2.2607 H         1 <0>         0.0641
     42 H16        -0.7664    4.5024    0.6929 H         1 <0>         0.0684
     43 H17        -2.1785    3.8037    1.5048 H         1 <0>         0.0776
     44 H18        -3.8857    2.9512    0.2034 H         1 <0>         0.3828
     45 H19        -2.7551    9.3291   -1.6235 H         1 <0>         0.1327
     46 H20        -4.1591   11.2945   -1.1608 H         1 <0>         0.1575
     47 H21        -7.3466    8.9020    0.0016 H         1 <0>         0.1585
     48 H22        -6.0613    6.8502   -0.4295 H         1 <0>         0.1374
@<TRIPOS>BOND
     1    1    6 ar
     2    1    2 ar
     3    1   28 1
     4    2    3 ar
     5    2   29 1
     6    3    4 ar
     7    3   27 1
     8    4    5 ar
     9    4   30 1
    10    5    6 ar
    11    5   31 1
    12    6    7 1
    13    7   12 1
    14    7    8 2
    15    8    9 1
    16    8   21 1
    17    9   11 2
    18   10   12 1
    19   11   13 1
    20   11   12 1
    21   13   19 1
    22   13   14 1
    23   13   20 1
    24   14   15 1
    25   14   32 1
    26   14   33 1
    27   15   16 1
    28   15   34 1
    29   15   35 1
    30   16   17 1
    31   16   36 1
    32   16   37 1
    33   17   18 1
    34   17   38 1
    35   17   39 1
    36   18   19 1
    37   18   40 1
    38   18   41 1
    39   19   42 1
    40   19   43 1
    41   20   44 1
    42   21   26 ar
    43   21   22 ar
    44   22   23 ar
    45   22   45 1
    46   23   24 ar
    47   23   46 1
    48   24   25 ar
    49   25   26 ar
    50   25   47 1
    51   26   48 1
@<TRIPOS>MOLECULE
ZINC03815715
   46    49     0     0     0
SMALL
USER_CHARGES

@<TRIPOS>ATOM
      1 C1         -8.1847   10.0490    2.3551 C.3       1 <0>         0.0898
      2 N1         -6.8593    9.6771    2.8562 N.pl3     1 <0>        -0.6328
      3 C2         -6.2572   10.4267    3.9616 C.3       1 <0>         0.0843
      4 C3         -6.1709    8.6098    2.2811 C.ar      1 <0>         0.2311
      5 C4         -6.7903    7.8246    1.3144 C.ar      1 <0>        -0.1954
      6 C5         -6.1127    6.7697    0.7440 C.ar      1 <0>        -0.0569
      7 C6         -4.8023    6.4886    1.1376 C.ar      1 <0>        -0.0887
      8 C7         -4.1853    7.2752    2.1131 C.ar      1 <0>        -0.0196
      9 C8         -4.8662    8.3322    2.6755 C.ar      1 <0>        -0.1999
     10 C9         -4.0727    5.3581    0.5278 C.2       1 <0>         0.2603
     11 N2         -2.7966    4.9837    0.8328 N.2       1 <0>        -0.4594
     12 H1         -5.4657    4.6083   -0.7916 H         1 <0>         0.4270
     13 C10        -2.4932    3.8951    0.0442 C.2       1 <0>         0.0589
     14 C11        -3.6180    3.6438   -0.7238 C.2       1 <0>         0.0197
     15 N3         -4.5494    4.5525   -0.3951 N.pl3     1 <0>        -0.5130
     16 C12        -3.7682    2.5617   -1.7249 C.ar      1 <0>        -0.0289
     17 C13        -2.6795    2.1756   -2.5062 C.ar      1 <0>        -0.0637
     18 C14        -2.8231    1.1643   -3.4335 C.ar      1 <0>        -0.1446
     19 C15        -4.0492    0.5395   -3.5963 C.ar      1 <0>         0.1056
     20 C16        -5.1351    0.9233   -2.8260 C.ar      1 <0>        -0.1467
     21 C17        -5.0002    1.9303   -1.8928 C.ar      1 <0>        -0.0866
     22 F1         -4.1863   -0.4468   -4.5093 F         1 <0>        -0.1353
     23 C18        -1.2225    3.1473    0.0214 C.ar      1 <0>         0.0434
     24 C19        -1.2111    1.7454    0.0184 C.ar      1 <0>        -0.1553
     25 C20        -0.0001    1.0877    0.0022 C.ar      1 <0>         0.1006
     26 N4          1.1362    1.7591   -0.0202 N.ar      1 <0>        -0.4841
     27 C21         1.1712    3.0787   -0.0232 C.ar      1 <0>         0.1004
     28 C22         0.0083    3.8181   -0.0028 C.ar      1 <0>        -0.1474
     29 H2         -8.9484    9.4980    2.9040 H         1 <0>         0.0513
     30 H3         -8.3385   11.1191    2.4940 H         1 <0>         0.0696
     31 H4         -8.2534    9.8066    1.2946 H         1 <0>         0.0699
     32 H5         -5.2430   10.0668    4.1347 H         1 <0>         0.0808
     33 H6         -6.2285   11.4865    3.7088 H         1 <0>         0.0595
     34 H7         -6.8522   10.2843    4.8637 H         1 <0>         0.0561
     35 H8         -7.8035    8.0424    1.0104 H         1 <0>         0.1284
     36 H9         -6.5941    6.1604   -0.0066 H         1 <0>         0.1164
     37 H10        -3.1737    7.0576    2.4227 H         1 <0>         0.1374
     38 H11        -4.3881    8.9435    3.4266 H         1 <0>         0.1320
     39 H12        -1.7247    2.6647   -2.3829 H         1 <0>         0.1354
     40 H13        -1.9797    0.8619   -4.0364 H         1 <0>         0.1419
     41 H14        -6.0888    0.4337   -2.9567 H         1 <0>         0.1406
     42 H15        -5.8474    2.2292   -1.2933 H         1 <0>         0.1300
     43 H16        -2.1369    1.1894    0.0326 H         1 <0>         0.1337
     44 H17         0.0194    0.0078    0.0035 H         1 <0>         0.1574
     45 H18         2.1245    3.5861   -0.0423 H         1 <0>         0.1584
     46 H19         0.0446    4.8974   -0.0051 H         1 <0>         0.1383
@<TRIPOS>BOND
     1    1    2 1
     2    1   29 1
     3    1   30 1
     4    1   31 1
     5    2    3 1
     6    2    4 1
     7    3   32 1
     8    3   33 1
     9    3   34 1
    10    4    9 ar
    11    4    5 ar
    12    5    6 ar
    13    5   35 1
    14    6    7 ar
    15    6   36 1
    16    7    8 ar
    17    7   10 1
    18    8    9 ar
    19    8   37 1
    20    9   38 1
    21   10   11 2
    22   10   15 1
    23   11   13 1
    24   12   15 1
    25   13   14 2
    26   13   23 1
    27   14   15 1
    28   14   16 1
    29   16   21 ar
    30   16   17 ar
    31   17   18 ar
    32   17   39 1
    33   18   19 ar
    34   18   40 1
    35   19   20 ar
    36   19   22 1
    37   20   21 ar
    38   20   41 1
    39   21   42 1
    40   23   28 ar
    41   23   24 ar
    42   24   25 ar
    43   24   43 1
    44   25   26 ar
    45   25   44 1
    46   26   27 ar
    47   27   28 ar
    48   27   45 1
    49   28   46 1
@<TRIPOS>MOLECULE
ZINC03815715
   47    50     0     0     0
SMALL
USER_CHARGES

@<TRIPOS>ATOM
      1 C1         -8.1847   10.0490    2.3551 C.3       1 <0>         0.0765
      2 N1         -6.8593    9.6771    2.8562 N.pl3     1 <0>        -0.6099
      3 C2         -6.2572   10.4267    3.9616 C.3       1 <0>         0.0724
      4 C3         -6.1709    8.6098    2.2811 C.ar      1 <0>         0.2719
      5 C4         -6.7903    7.8246    1.3144 C.ar      1 <0>        -0.1938
      6 C5         -6.1127    6.7697    0.7440 C.ar      1 <0>        -0.0149
      7 C6         -4.8023    6.4886    1.1376 C.ar      1 <0>        -0.1735
      8 C7         -4.1853    7.2752    2.1131 C.ar      1 <0>        -0.0129
      9 C8         -4.8662    8.3322    2.6755 C.ar      1 <0>        -0.1970
     10 C9         -4.0727    5.3581    0.5278 C.cat     1 <0>         0.4179
     11 N2         -2.7966    4.9837    0.8328 N.pl3     1 <0>        -0.5201
     12 H1         -2.1945    5.4178    1.5029 H         1 <0>         0.4689
     13 C10        -2.4932    3.8951    0.0442 C.2       1 <0>         0.1065
     14 C11        -3.6207    3.6390   -0.7183 C.2       1 <0>         0.1091
     15 C12        -3.7729    2.5536   -1.7154 C.ar      1 <0>        -0.0784
     16 C13        -2.6853    2.1638   -2.4965 C.ar      1 <0>        -0.0481
     17 C14        -2.8307    1.1494   -3.4201 C.ar      1 <0>        -0.1458
     18 C15        -4.0575    0.5251   -3.5794 C.ar      1 <0>         0.1393
     19 C16        -5.1423    0.9125   -2.8094 C.ar      1 <0>        -0.1467
     20 C17        -5.0056    1.9226   -1.8798 C.ar      1 <0>        -0.0647
     21 F1         -4.1963   -0.4643   -4.4888 F         1 <0>        -0.1219
     22 C18        -1.2225    3.1473    0.0214 C.ar      1 <0>        -0.0155
     23 C19        -1.2111    1.7454    0.0184 C.ar      1 <0>        -0.1339
     24 C20        -0.0001    1.0877    0.0022 C.ar      1 <0>         0.1159
     25 N3          1.1362    1.7591   -0.0202 N.ar      1 <0>        -0.4600
     26 C21         1.1712    3.0787   -0.0232 C.ar      1 <0>         0.1159
     27 C22         0.0083    3.8181   -0.0028 C.ar      1 <0>        -0.1500
     28 H2         -8.9484    9.4980    2.9040 H         1 <0>         0.0646
     29 H3         -8.3385   11.1191    2.4940 H         1 <0>         0.0821
     30 H4         -8.2534    9.8066    1.2946 H         1 <0>         0.0768
     31 H5         -5.2430   10.0668    4.1347 H         1 <0>         0.0838
     32 H6         -6.2285   11.4865    3.7088 H         1 <0>         0.0727
     33 H7         -6.8522   10.2843    4.8637 H         1 <0>         0.0698
     34 H8         -7.8035    8.0424    1.0104 H         1 <0>         0.1446
     35 H9         -6.5941    6.1604   -0.0066 H         1 <0>         0.1298
     36 H10        -3.1737    7.0576    2.4227 H         1 <0>         0.1298
     37 H11        -4.3881    8.9435    3.4266 H         1 <0>         0.1461
     38 H12        -1.7299    2.6526   -2.3759 H         1 <0>         0.1397
     39 H13        -1.9882    0.8442   -4.0228 H         1 <0>         0.1518
     40 H14        -6.0965    0.4232   -2.9374 H         1 <0>         0.1517
     41 H15        -5.8519    2.2243   -1.2805 H         1 <0>         0.1370
     42 H16        -2.1369    1.1894    0.0326 H         1 <0>         0.1458
     43 H17         0.0194    0.0078    0.0035 H         1 <0>         0.1710
     44 H18         2.1245    3.5861   -0.0423 H         1 <0>         0.1703
     45 H19         0.0446    4.8974   -0.0051 H         1 <0>         0.1417
     46 N4         -4.5517    4.5497   -0.3921 N.pl3     1 <0>        -0.4913
     47 H20        -5.4929    4.6063   -0.7984 H         1 <0>         0.4751
@<TRIPOS>BOND
     1    1    2 1
     2    1   28 1
     3    1   29 1
     4    1   30 1
     5    2    3 1
     6    2    4 1
     7    3   31 1
     8    3   32 1
     9    3   33 1
    10    4    9 ar
    11    4    5 ar
    12    5    6 ar
    13    5   34 1
    14    6    7 ar
    15    6   35 1
    16    7    8 ar
    17    7   10 1
    18    8    9 ar
    19    8   36 1
    20    9   37 1
    21   10   11 1
    22   10   46 2
    23   11   12 1
    24   11   13 1
    25   13   14 2
    26   13   22 1
    27   14   15 1
    28   14   46 1
    29   15   20 ar
    30   15   16 ar
    31   16   17 ar
    32   16   38 1
    33   17   18 ar
    34   17   39 1
    35   18   19 ar
    36   18   21 1
    37   19   20 ar
    38   19   40 1
    39   20   41 1
    40   22   27 ar
    41   22   23 ar
    42   23   24 ar
    43   23   42 1
    44   24   25 ar
    45   24   43 1
    46   25   26 ar
    47   26   27 ar
    48   26   44 1
    49   27   45 1
    50   46   47 1
@<TRIPOS>MOLECULE
ZINC03815715
   46    49     0     0     0
SMALL
USER_CHARGES

@<TRIPOS>ATOM
      1 C1         -8.1847   10.0490    2.3551 C.3       1 <0>         0.0898
      2 N1         -6.8593    9.6771    2.8562 N.pl3     1 <0>        -0.6328
      3 C2         -6.2572   10.4267    3.9616 C.3       1 <0>         0.0843
      4 C3         -6.1709    8.6098    2.2811 C.ar      1 <0>         0.2311
      5 C4         -6.7903    7.8246    1.3144 C.ar      1 <0>        -0.1954
      6 C5         -6.1127    6.7697    0.7440 C.ar      1 <0>        -0.0569
      7 C6         -4.8023    6.4886    1.1376 C.ar      1 <0>        -0.0887
      8 C7         -4.1853    7.2752    2.1131 C.ar      1 <0>        -0.0196
      9 C8         -4.8662    8.3322    2.6755 C.ar      1 <0>        -0.1999
     10 C9         -4.0727    5.3581    0.5278 C.2       1 <0>         0.2603
     11 N2         -2.7966    4.9837    0.8328 N.2       1 <0>        -0.4594
     12 H1         -5.4657    4.6083   -0.7916 H         1 <0>         0.4270
     13 C10        -2.4932    3.8951    0.0442 C.2       1 <0>         0.0589
     14 C11        -3.6180    3.6438   -0.7238 C.2       1 <0>         0.0197
     15 N3         -4.5494    4.5525   -0.3951 N.pl3     1 <0>        -0.5130
     16 C12        -3.7682    2.5617   -1.7249 C.ar      1 <0>        -0.0289
     17 C13        -2.6795    2.1756   -2.5062 C.ar      1 <0>        -0.0637
     18 C14        -2.8231    1.1643   -3.4335 C.ar      1 <0>        -0.1446
     19 C15        -4.0492    0.5395   -3.5963 C.ar      1 <0>         0.1056
     20 C16        -5.1351    0.9233   -2.8260 C.ar      1 <0>        -0.1467
     21 C17        -5.0002    1.9303   -1.8928 C.ar      1 <0>        -0.0866
     22 F1         -4.1863   -0.4468   -4.5093 F         1 <0>        -0.1353
     23 C18        -1.2225    3.1473    0.0214 C.ar      1 <0>         0.0434
     24 C19        -1.2111    1.7454    0.0184 C.ar      1 <0>        -0.1553
     25 C20        -0.0001    1.0877    0.0022 C.ar      1 <0>         0.1006
     26 N4          1.1362    1.7591   -0.0202 N.ar      1 <0>        -0.4841
     27 C21         1.1712    3.0787   -0.0232 C.ar      1 <0>         0.1004
     28 C22         0.0083    3.8181   -0.0028 C.ar      1 <0>        -0.1474
     29 H2         -8.9484    9.4980    2.9040 H         1 <0>         0.0513
     30 H3         -8.3385   11.1191    2.4940 H         1 <0>         0.0696
     31 H4         -8.2534    9.8066    1.2946 H         1 <0>         0.0699
     32 H5         -5.2430   10.0668    4.1347 H         1 <0>         0.0808
     33 H6         -6.2285   11.4865    3.7088 H         1 <0>         0.0595
     34 H7         -6.8522   10.2843    4.8637 H         1 <0>         0.0561
     35 H8         -7.8035    8.0424    1.0104 H         1 <0>         0.1284
     36 H9         -6.5941    6.1604   -0.0066 H         1 <0>         0.1164
     37 H10        -3.1737    7.0576    2.4227 H         1 <0>         0.1374
     38 H11        -4.3881    8.9435    3.4266 H         1 <0>         0.1320
     39 H12        -1.7247    2.6647   -2.3829 H         1 <0>         0.1354
     40 H13        -1.9797    0.8619   -4.0364 H         1 <0>         0.1419
     41 H14        -6.0888    0.4337   -2.9567 H         1 <0>         0.1406
     42 H15        -5.8474    2.2292   -1.2933 H         1 <0>         0.1300
     43 H16        -2.1369    1.1894    0.0326 H         1 <0>         0.1337
     44 H17         0.0194    0.0078    0.0035 H         1 <0>         0.1574
     45 H18         2.1245    3.5861   -0.0423 H         1 <0>         0.1584
     46 H19         0.0446    4.8974   -0.0051 H         1 <0>         0.1383
@<TRIPOS>BOND
     1    1    2 1
     2    1   29 1
     3    1   30 1
     4    1   31 1
     5    2    3 1
     6    2    4 1
     7    3   32 1
     8    3   33 1
     9    3   34 1
    10    4    9 ar
    11    4    5 ar
    12    5    6 ar
    13    5   35 1
    14    6    7 ar
    15    6   36 1
    16    7    8 ar
    17    7   10 1
    18    8    9 ar
    19    8   37 1
    20    9   38 1
    21   10   11 2
    22   10   15 1
    23   11   13 1
    24   12   15 1
    25   13   14 2
    26   13   23 1
    27   14   15 1
    28   14   16 1
    29   16   21 ar
    30   16   17 ar
    31   17   18 ar
    32   17   39 1
    33   18   19 ar
    34   18   40 1
    35   19   20 ar
    36   19   22 1
    37   20   21 ar
    38   20   41 1
    39   21   42 1
    40   23   28 ar
    41   23   24 ar
    42   24   25 ar
    43   24   43 1
    44   25   26 ar
    45   25   44 1
    46   26   27 ar
    47   27   28 ar
    48   27   45 1
    49   28   46 1
@<TRIPOS>MOLECULE
ZINC03815716
   48    51     0     0     0
SMALL
USER_CHARGES

@<TRIPOS>ATOM
      1 C1         -2.9233   -0.2717   -8.8731 C.ar      1 <0>        -0.1230
      2 C2         -2.0487    0.7684   -9.1302 C.ar      1 <0>        -0.0992
      3 C3         -1.7770    1.7025   -8.1503 C.ar      1 <0>        -0.0997
      4 C4         -2.3833    1.5963   -6.9042 C.ar      1 <0>        -0.0849
      5 C5         -3.2568    0.5463   -6.6474 C.ar      1 <0>        -0.1346
      6 C6         -3.5288   -0.3803   -7.6344 C.ar      1 <0>        -0.1000
      7 S1         -2.0397    2.7859   -5.6507 S.3       1 <0>        -0.1074
      8 C7         -3.0402    2.2385   -4.2401 C.3       1 <0>        -0.1080
      9 C8         -2.8332    3.1968   -3.0655 C.3       1 <0>        -0.1188
     10 C9         -3.6770    2.7351   -1.8757 C.3       1 <0>         0.1065
     11 N1         -3.5714    3.7156   -0.7923 N.pl3     1 <0>        -0.4452
     12 C10        -4.4407    4.7146   -0.5305 C.2       1 <0>         0.2040
     13 N2         -4.0270    5.3935    0.5033 N.2       1 <0>        -0.4751
     14 C11        -2.8775    4.8637    0.9597 C.2       1 <0>         0.0731
     15 C12        -2.5684    3.7868    0.1481 C.2       1 <0>         0.0158
     16 C13        -1.3965    2.8976    0.2632 C.ar      1 <0>         0.0309
     17 C14        -1.5526    1.5078    0.3520 C.ar      1 <0>        -0.1679
     18 C15        -0.4302    0.7154    0.4628 C.ar      1 <0>         0.1064
     19 N3          0.7774    1.2482    0.4759 N.ar      1 <0>        -0.4790
     20 C16         0.9699    2.5512    0.3896 C.ar      1 <0>         0.1084
     21 C17        -0.0957    3.4187    0.2811 C.ar      1 <0>        -0.1452
     22 C18        -2.0887    5.3444    2.1180 C.ar      1 <0>        -0.0168
     23 C19        -1.4192    4.4336    2.9349 C.ar      1 <0>        -0.0736
     24 C20        -0.6824    4.8865    4.0096 C.ar      1 <0>        -0.1514
     25 C21        -0.6151    6.2430    4.2841 C.ar      1 <0>         0.1026
     26 C22        -1.2825    7.1515    3.4782 C.ar      1 <0>        -0.1527
     27 C23        -2.0179    6.7088    2.3983 C.ar      1 <0>        -0.0613
     28 F1          0.1031    6.6813    5.3411 F         1 <0>        -0.1381
     29 H1         -3.1342   -1.0007   -9.6415 H         1 <0>         0.1268
     30 H2         -1.5780    0.8503  -10.0988 H         1 <0>         0.1299
     31 H3         -1.0940    2.5144   -8.3518 H         1 <0>         0.1284
     32 H4         -3.7262    0.4582   -5.6788 H         1 <0>         0.1213
     33 H5         -4.2115   -1.1936   -7.4372 H         1 <0>         0.1266
     34 H6         -2.7360    1.2336   -3.9471 H         1 <0>         0.0921
     35 H7         -4.0930    2.2316   -4.5222 H         1 <0>         0.0936
     36 H8         -3.1374    4.2017   -3.3585 H         1 <0>         0.0860
     37 H9         -1.7804    3.2037   -2.7833 H         1 <0>         0.0825
     38 H10        -3.3150    1.7679   -1.5270 H         1 <0>         0.0963
     39 H11        -4.7189    2.6438   -2.1828 H         1 <0>         0.1051
     40 H12        -5.3387    4.9224   -1.0933 H         1 <0>         0.2123
     41 H13        -2.5374    1.0646    0.3378 H         1 <0>         0.1327
     42 H14        -0.5401   -0.3565    0.5355 H         1 <0>         0.1591
     43 H15         1.9762    2.9429    0.4040 H         1 <0>         0.1612
     44 H16         0.0693    4.4838    0.2113 H         1 <0>         0.1383
     45 H17        -1.4744    3.3758    2.7242 H         1 <0>         0.1277
     46 H18        -0.1606    4.1823    4.6406 H         1 <0>         0.1373
     47 H19        -1.2270    8.2078    3.6961 H         1 <0>         0.1391
     48 H20        -2.5382    7.4175    1.7712 H         1 <0>         0.1383
@<TRIPOS>BOND
     1    1    6 ar
     2    1    2 ar
     3    1   29 1
     4    2    3 ar
     5    2   30 1
     6    3    4 ar
     7    3   31 1
     8    4    5 ar
     9    4    7 1
    10    5    6 ar
    11    5   32 1
    12    6   33 1
    13    7    8 1
    14    8    9 1
    15    8   34 1
    16    8   35 1
    17    9   10 1
    18    9   36 1
    19    9   37 1
    20   10   11 1
    21   10   38 1
    22   10   39 1
    23   11   15 1
    24   11   12 1
    25   12   13 2
    26   12   40 1
    27   13   14 1
    28   14   15 2
    29   14   22 1
    30   15   16 1
    31   16   21 ar
    32   16   17 ar
    33   17   18 ar
    34   17   41 1
    35   18   19 ar
    36   18   42 1
    37   19   20 ar
    38   20   21 ar
    39   20   43 1
    40   21   44 1
    41   22   27 ar
    42   22   23 ar
    43   23   24 ar
    44   23   45 1
    45   24   25 ar
    46   24   46 1
    47   25   26 ar
    48   25   28 1
    49   26   27 ar
    50   26   47 1
    51   27   48 1
@<TRIPOS>MOLECULE
ZINC03815716
   49    52     0     0     0
SMALL
USER_CHARGES

@<TRIPOS>ATOM
      1 C1         -2.9233   -0.2717   -8.8731 C.ar      1 <0>        -0.1161
      2 C2         -2.0487    0.7684   -9.1302 C.ar      1 <0>        -0.0968
      3 C3         -1.7770    1.7025   -8.1503 C.ar      1 <0>        -0.0965
      4 C4         -2.3833    1.5963   -6.9042 C.ar      1 <0>        -0.0908
      5 C5         -3.2568    0.5463   -6.6474 C.ar      1 <0>        -0.1339
      6 C6         -3.5288   -0.3803   -7.6344 C.ar      1 <0>        -0.0999
      7 S1         -2.0397    2.7859   -5.6507 S.3       1 <0>        -0.1017
      8 C7         -3.0402    2.2385   -4.2401 C.3       1 <0>        -0.1159
      9 C8         -2.8332    3.1968   -3.0655 C.3       1 <0>        -0.1223
     10 C9         -3.6770    2.7351   -1.8757 C.3       1 <0>         0.0930
     11 N1         -3.5714    3.7156   -0.7923 N.pl3     1 <0>        -0.3979
     12 C10        -4.4407    4.7146   -0.5305 C.cat     1 <0>         0.2995
     13 C11        -2.8775    4.8637    0.9597 C.2       1 <0>         0.1114
     14 C12        -2.5684    3.7868    0.1481 C.2       1 <0>         0.1019
     15 C13        -1.3965    2.8976    0.2632 C.ar      1 <0>        -0.0172
     16 C14        -1.5526    1.5078    0.3520 C.ar      1 <0>        -0.1521
     17 C15        -0.4302    0.7154    0.4628 C.ar      1 <0>         0.1172
     18 N2          0.7774    1.2482    0.4759 N.ar      1 <0>        -0.4574
     19 C16         0.9699    2.5512    0.3896 C.ar      1 <0>         0.1185
     20 C17        -0.0957    3.4187    0.2811 C.ar      1 <0>        -0.1316
     21 C18        -2.0887    5.3444    2.1180 C.ar      1 <0>        -0.0820
     22 C19        -1.4192    4.4336    2.9349 C.ar      1 <0>        -0.0458
     23 C20        -0.6824    4.8865    4.0096 C.ar      1 <0>        -0.1463
     24 C21        -0.6151    6.2430    4.2841 C.ar      1 <0>         0.1420
     25 C22        -1.2825    7.1515    3.4782 C.ar      1 <0>        -0.1469
     26 C23        -2.0179    6.7088    2.3983 C.ar      1 <0>        -0.0629
     27 F1          0.1031    6.6813    5.3411 F         1 <0>        -0.1208
     28 H1         -3.1342   -1.0007   -9.6415 H         1 <0>         0.1302
     29 H2         -1.5780    0.8503  -10.0988 H         1 <0>         0.1332
     30 H3         -1.0940    2.5144   -8.3518 H         1 <0>         0.1295
     31 H4         -3.7262    0.4582   -5.6788 H         1 <0>         0.1194
     32 H5         -4.2115   -1.1936   -7.4372 H         1 <0>         0.1287
     33 H6         -2.7360    1.2336   -3.9471 H         1 <0>         0.0969
     34 H7         -4.0930    2.2316   -4.5222 H         1 <0>         0.0978
     35 H8         -3.1374    4.2017   -3.3585 H         1 <0>         0.0921
     36 H9         -1.7804    3.2037   -2.7833 H         1 <0>         0.0914
     37 H10        -3.3150    1.7679   -1.5270 H         1 <0>         0.1240
     38 H11        -4.7189    2.6438   -2.1828 H         1 <0>         0.1308
     39 H12        -5.3387    4.9224   -1.0933 H         1 <0>         0.2655
     40 H13        -2.5374    1.0646    0.3378 H         1 <0>         0.1407
     41 H14        -0.5401   -0.3565    0.5355 H         1 <0>         0.1703
     42 H15         1.9762    2.9429    0.4040 H         1 <0>         0.1715
     43 H16         0.0693    4.4838    0.2113 H         1 <0>         0.1450
     44 H17        -1.4744    3.3758    2.7242 H         1 <0>         0.1385
     45 H18        -0.1606    4.1823    4.6406 H         1 <0>         0.1520
     46 H19        -1.2270    8.2078    3.6961 H         1 <0>         0.1524
     47 H20        -2.5382    7.4175    1.7712 H         1 <0>         0.1377
     48 N3         -4.0273    5.3940    0.5035 N.pl3     1 <0>        -0.4786
     49 H21        -4.5055    6.2080    0.9073 H         1 <0>         0.4820
@<TRIPOS>BOND
     1    1    6 ar
     2    1    2 ar
     3    1   28 1
     4    2    3 ar
     5    2   29 1
     6    3    4 ar
     7    3   30 1
     8    4    5 ar
     9    4    7 1
    10    5    6 ar
    11    5   31 1
    12    6   32 1
    13    7    8 1
    14    8    9 1
    15    8   33 1
    16    8   34 1
    17    9   10 1
    18    9   35 1
    19    9   36 1
    20   10   11 1
    21   10   37 1
    22   10   38 1
    23   11   14 1
    24   11   12 1
    25   12   39 1
    26   12   48 2
    27   13   14 2
    28   13   21 1
    29   13   48 1
    30   14   15 1
    31   15   20 ar
    32   15   16 ar
    33   16   17 ar
    34   16   40 1
    35   17   18 ar
    36   17   41 1
    37   18   19 ar
    38   19   20 ar
    39   19   42 1
    40   20   43 1
    41   21   26 ar
    42   21   22 ar
    43   22   23 ar
    44   22   44 1
    45   23   24 ar
    46   23   45 1
    47   24   25 ar
    48   24   27 1
    49   25   26 ar
    50   25   46 1
    51   26   47 1
    52   48   49 1
@<TRIPOS>MOLECULE
ZINC03815717
   42    45     0     0     0
SMALL
USER_CHARGES

@<TRIPOS>ATOM
      1 C1          2.4380    0.6520    3.7463 C.3       1 <0>        -0.1531
      2 S1          2.8364    1.9536    2.5472 S.3       1 <0>        -0.0840
      3 C2          1.5040    1.8947    1.3957 C.ar      1 <0>        -0.0706
      4 C3          0.4794    0.9731    1.5628 C.ar      1 <0>        -0.1259
      5 C4         -0.5670    0.9330    0.6616 C.ar      1 <0>        -0.0812
      6 C5         -0.5917    1.8011   -0.4150 C.ar      1 <0>        -0.1129
      7 C6          0.4243    2.7218   -0.5897 C.ar      1 <0>        -0.0851
      8 C7          1.4756    2.7739    0.3129 C.ar      1 <0>         0.1169
      9 N1          2.5077    3.7074    0.1375 N.pl3     1 <0>        -0.4025
     10 C8          3.4148    3.7246   -0.8720 C.2       1 <0>         0.2124
     11 N2          4.2218    4.7372   -0.7131 N.2       1 <0>        -0.4677
     12 C9          3.8856    5.4132    0.4003 C.2       1 <0>         0.0707
     13 C10         2.7934    4.7747    0.9613 C.2       1 <0>         0.0345
     14 C11         2.0792    5.1588    2.1936 C.ar      1 <0>         0.0368
     15 C12         0.6930    5.3654    2.1884 C.ar      1 <0>        -0.1597
     16 C13         0.0661    5.7182    3.3641 C.ar      1 <0>         0.1024
     17 N3          0.7542    5.8718    4.4801 N.ar      1 <0>        -0.4788
     18 C14         2.0610    5.6923    4.5284 C.ar      1 <0>         0.1026
     19 C15         2.7686    5.3331    3.4014 C.ar      1 <0>        -0.1314
     20 C16         4.5610    6.6210    0.9291 C.ar      1 <0>        -0.0148
     21 C17         3.8174    7.6198    1.5575 C.ar      1 <0>        -0.0735
     22 C18         4.4516    8.7401    2.0530 C.ar      1 <0>        -0.1509
     23 C19         5.8236    8.8791    1.9178 C.ar      1 <0>         0.1022
     24 C20         6.5660    7.8923    1.2892 C.ar      1 <0>        -0.1527
     25 C21         5.9417    6.7657    0.7951 C.ar      1 <0>        -0.0610
     26 F1          6.4396    9.9806    2.4001 F         1 <0>        -0.1385
     27 H1          3.2153    0.6105    4.5092 H         1 <0>         0.1138
     28 H2          1.4792    0.8718    4.2160 H         1 <0>         0.0858
     29 H3          2.3799   -0.3084    3.2341 H         1 <0>         0.0864
     30 H4          0.4976    0.2910    2.4000 H         1 <0>         0.1332
     31 H5         -1.3659    0.2186    0.7956 H         1 <0>         0.1358
     32 H6         -1.4099    1.7624   -1.1190 H         1 <0>         0.1386
     33 H7          0.3992    3.4009   -1.4290 H         1 <0>         0.1376
     34 H8          3.4597    3.0123   -1.6825 H         1 <0>         0.2128
     35 H9          0.1243    5.2463    1.2781 H         1 <0>         0.1285
     36 H10        -1.0024    5.8757    3.3714 H         1 <0>         0.1562
     37 H11         2.5831    5.8290    5.4639 H         1 <0>         0.1587
     38 H12         3.8378    5.1879    3.4484 H         1 <0>         0.1362
     39 H13         2.7474    7.5142    1.6597 H         1 <0>         0.1279
     40 H14         3.8773    9.5122    2.5434 H         1 <0>         0.1373
     41 H15         7.6350    8.0054    1.1856 H         1 <0>         0.1388
     42 H16         6.5211    5.9973    0.3050 H         1 <0>         0.1385
@<TRIPOS>BOND
     1    1    2 1
     2    1   27 1
     3    1   28 1
     4    1   29 1
     5    2    3 1
     6    3    8 ar
     7    3    4 ar
     8    4    5 ar
     9    4   30 1
    10    5    6 ar
    11    5   31 1
    12    6    7 ar
    13    6   32 1
    14    7    8 ar
    15    7   33 1
    16    8    9 1
    17    9   13 1
    18    9   10 1
    19   10   11 2
    20   10   34 1
    21   11   12 1
    22   12   13 2
    23   12   20 1
    24   13   14 1
    25   14   19 ar
    26   14   15 ar
    27   15   16 ar
    28   15   35 1
    29   16   17 ar
    30   16   36 1
    31   17   18 ar
    32   18   19 ar
    33   18   37 1
    34   19   38 1
    35   20   25 ar
    36   20   21 ar
    37   21   22 ar
    38   21   39 1
    39   22   23 ar
    40   22   40 1
    41   23   24 ar
    42   23   26 1
    43   24   25 ar
    44   24   41 1
    45   25   42 1
@<TRIPOS>MOLECULE
ZINC03815717
   43    46     0     0     0
SMALL
USER_CHARGES

@<TRIPOS>ATOM
      1 C1          2.4380    0.6520    3.7463 C.3       1 <0>        -0.1448
      2 S1          2.8364    1.9536    2.5472 S.3       1 <0>        -0.0992
      3 C2          1.5040    1.8947    1.3957 C.ar      1 <0>        -0.0522
      4 C3          0.4794    0.9731    1.5628 C.ar      1 <0>        -0.1219
      5 C4         -0.5670    0.9330    0.6616 C.ar      1 <0>        -0.0532
      6 C5         -0.5917    1.8011   -0.4150 C.ar      1 <0>        -0.1076
      7 C6          0.4243    2.7218   -0.5897 C.ar      1 <0>        -0.0686
      8 C7          1.4756    2.7739    0.3129 C.ar      1 <0>         0.0645
      9 N1          2.5077    3.7074    0.1375 N.pl3     1 <0>        -0.3436
     10 C8          3.4148    3.7246   -0.8720 C.cat     1 <0>         0.3041
     11 C9          3.8856    5.4132    0.4003 C.2       1 <0>         0.1048
     12 C10         2.7934    4.7747    0.9613 C.2       1 <0>         0.1175
     13 C11         2.0792    5.1588    2.1936 C.ar      1 <0>        -0.0093
     14 C12         0.6930    5.3654    2.1884 C.ar      1 <0>        -0.1417
     15 C13         0.0661    5.7182    3.3641 C.ar      1 <0>         0.1120
     16 N2          0.7542    5.8718    4.4801 N.ar      1 <0>        -0.4578
     17 C14         2.0610    5.6923    4.5284 C.ar      1 <0>         0.1121
     18 C15         2.7686    5.3331    3.4014 C.ar      1 <0>        -0.1198
     19 C16         4.5610    6.6210    0.9291 C.ar      1 <0>        -0.0778
     20 C17         3.8174    7.6198    1.5575 C.ar      1 <0>        -0.0464
     21 C18         4.4516    8.7401    2.0530 C.ar      1 <0>        -0.1456
     22 C19         5.8236    8.8791    1.9178 C.ar      1 <0>         0.1404
     23 C20         6.5660    7.8923    1.2892 C.ar      1 <0>        -0.1467
     24 C21         5.9417    6.7657    0.7951 C.ar      1 <0>        -0.0633
     25 F1          6.4396    9.9806    2.4001 F         1 <0>        -0.1216
     26 H1          3.2153    0.6105    4.5092 H         1 <0>         0.1216
     27 H2          1.4792    0.8718    4.2160 H         1 <0>         0.0937
     28 H3          2.3799   -0.3084    3.2341 H         1 <0>         0.0943
     29 H4          0.4976    0.2910    2.4000 H         1 <0>         0.1442
     30 H5         -1.3659    0.2186    0.7956 H         1 <0>         0.1478
     31 H6         -1.4099    1.7624   -1.1190 H         1 <0>         0.1505
     32 H7          0.3992    3.4009   -1.4290 H         1 <0>         0.1445
     33 H8          3.4597    3.0123   -1.6825 H         1 <0>         0.2654
     34 H9          0.1243    5.2463    1.2781 H         1 <0>         0.1365
     35 H10        -1.0024    5.8757    3.3714 H         1 <0>         0.1672
     36 H11         2.5831    5.8290    5.4639 H         1 <0>         0.1687
     37 H12         3.8378    5.1879    3.4484 H         1 <0>         0.1427
     38 H13         2.7474    7.5142    1.6597 H         1 <0>         0.1385
     39 H14         3.8773    9.5122    2.5434 H         1 <0>         0.1518
     40 H15         7.6350    8.0054    1.1856 H         1 <0>         0.1520
     41 H16         6.5211    5.9973    0.3050 H         1 <0>         0.1377
     42 N3          4.2226    4.7375   -0.7138 N.pl3     1 <0>        -0.4741
     43 H17         4.9966    4.9814   -1.3428 H         1 <0>         0.4826
@<TRIPOS>BOND
     1    1    2 1
     2    1   26 1
     3    1   27 1
     4    1   28 1
     5    2    3 1
     6    3    8 ar
     7    3    4 ar
     8    4    5 ar
     9    4   29 1
    10    5    6 ar
    11    5   30 1
    12    6    7 ar
    13    6   31 1
    14    7    8 ar
    15    7   32 1
    16    8    9 1
    17    9   12 1
    18    9   10 1
    19   10   33 1
    20   10   42 2
    21   11   12 2
    22   11   19 1
    23   11   42 1
    24   12   13 1
    25   13   18 ar
    26   13   14 ar
    27   14   15 ar
    28   14   34 1
    29   15   16 ar
    30   15   35 1
    31   16   17 ar
    32   17   18 ar
    33   17   36 1
    34   18   37 1
    35   19   24 ar
    36   19   20 ar
    37   20   21 ar
    38   20   38 1
    39   21   22 ar
    40   21   39 1
    41   22   23 ar
    42   22   25 1
    43   23   24 ar
    44   23   40 1
    45   24   41 1
    46   42   43 1
@<TRIPOS>MOLECULE
ZINC03815718
   35    38     0     0     0
SMALL
USER_CHARGES

@<TRIPOS>ATOM
      1 C1          2.8001    3.5897    0.6910 C.ar      1 <0>        -0.0737
      2 C2          3.1783    4.9163    0.6876 C.ar      1 <0>        -0.1513
      3 C3          2.4155    5.8548    0.0112 C.ar      1 <0>         0.1029
      4 C4          1.2729    5.4654   -0.6690 C.ar      1 <0>        -0.1528
      5 C5          0.8893    4.1403   -0.6758 C.ar      1 <0>        -0.0613
      6 C6          1.6537    3.1920    0.0034 C.ar      1 <0>        -0.0171
      7 C7          1.2460    1.7677   -0.0003 C.2       1 <0>         0.0712
      8 C8          2.0920    0.6732   -0.0143 C.2       1 <0>         0.0205
      9 N1          1.2801   -0.4387   -0.0125 N.pl3     1 <0>        -0.4164
     10 C9          0.0021   -0.0041    0.0020 C.2       1 <0>         0.1993
     11 N2         -0.0156    1.2999    0.0092 N.2       1 <0>        -0.4731
     12 C10         1.7215   -1.8355   -0.0250 C.3       1 <0>         0.0461
     13 C11         0.6530   -2.9123   -0.2243 C.3       1 <0>        -0.1672
     14 C12         1.2988   -2.7205    1.1494 C.3       1 <0>        -0.1737
     15 C13         3.5674    0.6934   -0.0292 C.ar      1 <0>         0.0299
     16 C14         4.3079   -0.1474    0.8125 C.ar      1 <0>        -0.1661
     17 C15         5.6845   -0.0983    0.7623 C.ar      1 <0>         0.1053
     18 N3          6.3041    0.7318   -0.0559 N.ar      1 <0>        -0.4807
     19 C16         5.6456    1.5437   -0.8618 C.ar      1 <0>         0.1065
     20 C17         4.2675    1.5580   -0.8813 C.ar      1 <0>        -0.1465
     21 F1          2.7869    7.1537    0.0154 F         1 <0>        -0.1380
     22 H1          3.3928    2.8596    1.2222 H         1 <0>         0.1286
     23 H2          4.0683    5.2245    1.2160 H         1 <0>         0.1379
     24 H3          0.6814    6.2006   -1.1944 H         1 <0>         0.1392
     25 H4         -0.0017    3.8379   -1.2060 H         1 <0>         0.1384
     26 H5         -0.8717   -0.6389    0.0064 H         1 <0>         0.2096
     27 H6          2.7041   -2.0141   -0.4616 H         1 <0>         0.1424
     28 H7         -0.3784   -2.5814   -0.3461 H         1 <0>         0.1077
     29 H8          0.9325   -3.7996   -0.7923 H         1 <0>         0.1170
     30 H9          2.0032   -3.4815    1.4851 H         1 <0>         0.1150
     31 H10         0.6923   -2.2633    1.9313 H         1 <0>         0.1064
     32 H11         3.8077   -0.8259    1.4878 H         1 <0>         0.1340
     33 H12         6.2643   -0.7449    1.4043 H         1 <0>         0.1595
     34 H13         6.1944    2.2063   -1.5147 H         1 <0>         0.1614
     35 H14         3.7354    2.2251   -1.5434 H         1 <0>         0.1390
@<TRIPOS>BOND
     1    1    6 ar
     2    1    2 ar
     3    1   22 1
     4    2    3 ar
     5    2   23 1
     6    3    4 ar
     7    3   21 1
     8    4    5 ar
     9    4   24 1
    10    5    6 ar
    11    5   25 1
    12    6    7 1
    13    7   11 1
    14    7    8 2
    15    8    9 1
    16    8   15 1
    17    9   10 1
    18    9   12 1
    19   10   11 2
    20   10   26 1
    21   12   14 1
    22   12   13 1
    23   12   27 1
    24   13   14 1
    25   13   28 1
    26   13   29 1
    27   14   30 1
    28   14   31 1
    29   15   20 ar
    30   15   16 ar
    31   16   17 ar
    32   16   32 1
    33   17   18 ar
    34   17   33 1
    35   18   19 ar
    36   19   20 ar
    37   19   34 1
    38   20   35 1
@<TRIPOS>MOLECULE
ZINC03815718
   36    39     0     0     0
SMALL
USER_CHARGES

@<TRIPOS>ATOM
      1 C1          2.8001    3.5897    0.6910 C.ar      1 <0>        -0.0468
      2 C2          3.1783    4.9163    0.6876 C.ar      1 <0>        -0.1461
      3 C3          2.4155    5.8548    0.0112 C.ar      1 <0>         0.1422
      4 C4          1.2729    5.4654   -0.6690 C.ar      1 <0>        -0.1470
      5 C5          0.8893    4.1403   -0.6758 C.ar      1 <0>        -0.0626
      6 C6          1.6537    3.1920    0.0034 C.ar      1 <0>        -0.0824
      7 C7          1.2460    1.7677   -0.0003 C.2       1 <0>         0.1092
      8 C8          2.0920    0.6732   -0.0143 C.2       1 <0>         0.1077
      9 N1          1.2801   -0.4387   -0.0125 N.pl3     1 <0>        -0.3665
     10 C9          0.0021   -0.0041    0.0020 C.cat     1 <0>         0.2861
     11 C10         1.7215   -1.8355   -0.0250 C.3       1 <0>         0.0198
     12 C11         0.6530   -2.9123   -0.2243 C.3       1 <0>        -0.1555
     13 C12         1.2988   -2.7205    1.1494 C.3       1 <0>        -0.1575
     14 C13         3.5674    0.6934   -0.0292 C.ar      1 <0>        -0.0167
     15 C14         4.3079   -0.1474    0.8125 C.ar      1 <0>        -0.1485
     16 C15         5.6845   -0.0983    0.7623 C.ar      1 <0>         0.1159
     17 N2          6.3041    0.7318   -0.0559 N.ar      1 <0>        -0.4582
     18 C16         5.6456    1.5437   -0.8618 C.ar      1 <0>         0.1165
     19 C17         4.2675    1.5580   -0.8813 C.ar      1 <0>        -0.1335
     20 F1          2.7869    7.1537    0.0154 F         1 <0>        -0.1207
     21 H1          3.3928    2.8596    1.2222 H         1 <0>         0.1393
     22 H2          4.0683    5.2245    1.2160 H         1 <0>         0.1526
     23 H3          0.6814    6.2006   -1.1944 H         1 <0>         0.1526
     24 H4         -0.0017    3.8379   -1.2060 H         1 <0>         0.1378
     25 H5         -0.8717   -0.6389    0.0064 H         1 <0>         0.2611
     26 H6          2.7041   -2.0141   -0.4616 H         1 <0>         0.1695
     27 H7         -0.3784   -2.5814   -0.3461 H         1 <0>         0.1137
     28 H8          0.9325   -3.7996   -0.7923 H         1 <0>         0.1344
     29 H9          2.0032   -3.4815    1.4851 H         1 <0>         0.1328
     30 H10         0.6923   -2.2633    1.9313 H         1 <0>         0.1153
     31 H11         3.8077   -0.8259    1.4878 H         1 <0>         0.1419
     32 H12         6.2643   -0.7449    1.4043 H         1 <0>         0.1708
     33 H13         6.1944    2.2063   -1.5147 H         1 <0>         0.1717
     34 H14         3.7354    2.2251   -1.5434 H         1 <0>         0.1454
     35 N3         -0.0161    1.3002    0.0092 N.pl3     1 <0>        -0.4761
     36 H15        -0.8628    1.8808    0.0204 H         1 <0>         0.4819
@<TRIPOS>BOND
     1    1    6 ar
     2    1    2 ar
     3    1   21 1
     4    2    3 ar
     5    2   22 1
     6    3    4 ar
     7    3   20 1
     8    4    5 ar
     9    4   23 1
    10    5    6 ar
    11    5   24 1
    12    6    7 1
    13    7    8 2
    14    7   35 1
    15    8    9 1
    16    8   14 1
    17    9   10 1
    18    9   11 1
    19   10   25 1
    20   10   35 2
    21   11   13 1
    22   11   12 1
    23   11   26 1
    24   12   13 1
    25   12   27 1
    26   12   28 1
    27   13   29 1
    28   13   30 1
    29   14   19 ar
    30   14   15 ar
    31   15   16 ar
    32   15   31 1
    33   16   17 ar
    34   16   32 1
    35   17   18 ar
    36   18   19 ar
    37   18   33 1
    38   19   34 1
    39   35   36 1
@<TRIPOS>MOLECULE
ZINC03815719
   42    45     0     0     0
SMALL
USER_CHARGES

@<TRIPOS>ATOM
      1 C1         -1.2325    2.1608    0.0215 C.ar      1 <0>        -0.0626
      2 C2         -1.2456    3.5402    0.0352 C.ar      1 <0>        -0.1445
      3 C3         -0.0536    4.2466    0.0283 C.ar      1 <0>         0.1076
      4 C4          1.1567    3.5721    0.0128 C.ar      1 <0>        -0.1468
      5 C5          1.1802    2.1928    0.0045 C.ar      1 <0>        -0.0855
      6 C6         -0.0169    1.4773    0.0118 C.ar      1 <0>        -0.0310
      7 C7          0.0028   -0.0041    0.0029 C.2       1 <0>         0.0216
      8 C8         -0.8905   -0.8392    0.6500 C.2       1 <0>         0.0569
      9 N1         -0.4902   -2.1247    0.3623 N.2       1 <0>        -0.4532
     10 H1          1.6633   -0.4553   -1.1808 H         1 <0>         0.4277
     11 C9          0.6062   -2.0395   -0.4207 C.2       1 <0>         0.1765
     12 N2          0.8956   -0.7855   -0.6316 N.pl3     1 <0>        -0.5070
     13 C10         1.3773   -3.2132   -0.9671 C.3       1 <0>         0.2188
     14 C11         2.8527   -3.1284   -0.5247 C.3       1 <0>        -0.1496
     15 C12         3.6468   -3.6484   -1.7486 C.3       1 <0>        -0.1215
     16 C13         2.8519   -3.0670   -2.9440 C.3       1 <0>        -0.1267
     17 C14         1.3768   -3.1742   -2.5054 C.3       1 <0>        -0.1158
     18 O1          0.7972   -4.4360   -0.5083 O.3       1 <0>        -0.5291
     19 C15        -2.0411   -0.4339    1.4800 C.ar      1 <0>         0.0417
     20 C16        -1.9158    0.5798    2.4395 C.ar      1 <0>        -0.1554
     21 C17        -3.0183    0.9298    3.1891 C.ar      1 <0>         0.1009
     22 N3         -4.1755    0.3178    3.0199 N.ar      1 <0>        -0.4831
     23 C18        -4.3360   -0.6452    2.1315 C.ar      1 <0>         0.1011
     24 C19        -3.2886   -1.0557    1.3351 C.ar      1 <0>        -0.1467
     25 F1         -0.0714    5.5975    0.0364 F         1 <0>        -0.1345
     26 H2         -2.1621    1.6111    0.0224 H         1 <0>         0.1353
     27 H3         -2.1864    4.0704    0.0473 H         1 <0>         0.1426
     28 H4          2.0832    4.1271    0.0067 H         1 <0>         0.1412
     29 H5          2.1240    1.6680   -0.0080 H         1 <0>         0.1297
     30 H6          3.1258   -2.0967   -0.3031 H         1 <0>         0.0697
     31 H7          3.0281   -3.7651    0.3425 H         1 <0>         0.0841
     32 H8          3.6440   -4.7381   -1.7763 H         1 <0>         0.0782
     33 H9          4.6667   -3.2638   -1.7392 H         1 <0>         0.0741
     34 H10         3.0267   -3.6588   -3.8425 H         1 <0>         0.0780
     35 H11         3.1242   -2.0255   -3.1154 H         1 <0>         0.0670
     36 H12         0.9348   -4.0882   -2.9020 H         1 <0>         0.0931
     37 H13         0.8180   -2.3067   -2.8567 H         1 <0>         0.0724
     38 H14         0.7782   -4.5254    0.4543 H         1 <0>         0.3862
     39 H15        -0.9709    1.0818    2.5866 H         1 <0>         0.1334
     40 H16        -2.9330    1.7124    3.9285 H         1 <0>         0.1578
     41 H17        -5.3014   -1.1182    2.0274 H         1 <0>         0.1590
     42 H18        -3.4273   -1.8443    0.6102 H         1 <0>         0.1384
@<TRIPOS>BOND
     1    1    6 ar
     2    1    2 ar
     3    1   26 1
     4    2    3 ar
     5    2   27 1
     6    3    4 ar
     7    3   25 1
     8    4    5 ar
     9    4   28 1
    10    5    6 ar
    11    5   29 1
    12    6    7 1
    13    7   12 1
    14    7    8 2
    15    8    9 1
    16    8   19 1
    17    9   11 2
    18   10   12 1
    19   11   13 1
    20   11   12 1
    21   13   17 1
    22   13   14 1
    23   13   18 1
    24   14   15 1
    25   14   30 1
    26   14   31 1
    27   15   16 1
    28   15   32 1
    29   15   33 1
    30   16   17 1
    31   16   34 1
    32   16   35 1
    33   17   36 1
    34   17   37 1
    35   18   38 1
    36   19   24 ar
    37   19   20 ar
    38   20   21 ar
    39   20   39 1
    40   21   22 ar
    41   21   40 1
    42   22   23 ar
    43   23   24 ar
    44   23   41 1
    45   24   42 1
@<TRIPOS>MOLECULE
ZINC03815719
   43    46     0     0     0
SMALL
USER_CHARGES

@<TRIPOS>ATOM
      1 C1         -1.2339    2.1604    0.0196 C.ar      1 <0>        -0.0452
      2 C2         -1.2474    3.5398    0.0326 C.ar      1 <0>        -0.1456
      3 C3         -0.0556    4.2466    0.0255 C.ar      1 <0>         0.1441
      4 C4          1.1549    3.5725    0.0103 C.ar      1 <0>        -0.1464
      5 C5          1.1788    2.1932    0.0026 C.ar      1 <0>        -0.0623
      6 C6         -0.0180    1.4773    0.0102 C.ar      1 <0>        -0.0844
      7 C7          0.0021   -0.0041    0.0020 C.2       1 <0>         0.1141
      8 C8         -0.8905   -0.8392    0.6500 C.2       1 <0>         0.1126
      9 N1         -0.4902   -2.1247    0.3623 N.pl3     1 <0>        -0.4973
     10 H1         -0.9304   -2.9662    0.6755 H         1 <0>         0.4734
     11 C9          0.6062   -2.0395   -0.4207 C.cat     1 <0>         0.3024
     12 C10         1.3773   -3.2132   -0.9671 C.3       1 <0>         0.1884
     13 C11         2.8527   -3.1284   -0.5247 C.3       1 <0>        -0.1496
     14 C12         3.6468   -3.6484   -1.7486 C.3       1 <0>        -0.1227
     15 C13         2.8519   -3.0670   -2.9440 C.3       1 <0>        -0.1299
     16 C14         1.3768   -3.1742   -2.5054 C.3       1 <0>        -0.1187
     17 O1          0.7972   -4.4360   -0.5083 O.3       1 <0>        -0.5203
     18 C15        -2.0411   -0.4339    1.4800 C.ar      1 <0>        -0.0216
     19 C16        -1.9158    0.5798    2.4395 C.ar      1 <0>        -0.1320
     20 C17        -3.0183    0.9298    3.1891 C.ar      1 <0>         0.1172
     21 N2         -4.1755    0.3178    3.0199 N.ar      1 <0>        -0.4568
     22 C18        -4.3360   -0.6452    2.1315 C.ar      1 <0>         0.1177
     23 C19        -3.2886   -1.0557    1.3351 C.ar      1 <0>        -0.1480
     24 F1         -0.0739    5.5975    0.0330 F         1 <0>        -0.1199
     25 H2         -2.1633    1.6104    0.0207 H         1 <0>         0.1401
     26 H3         -2.1884    4.0697    0.0445 H         1 <0>         0.1535
     27 H4          2.0812    4.1278    0.0040 H         1 <0>         0.1533
     28 H5          2.1228    1.6687   -0.0096 H         1 <0>         0.1372
     29 H6          3.1258   -2.0967   -0.3031 H         1 <0>         0.0795
     30 H7          3.0281   -3.7651    0.3425 H         1 <0>         0.0997
     31 H8          3.6440   -4.7381   -1.7763 H         1 <0>         0.0874
     32 H9          4.6667   -3.2638   -1.7392 H         1 <0>         0.0886
     33 H10         3.0267   -3.6588   -3.8425 H         1 <0>         0.0920
     34 H11         3.1242   -2.0255   -3.1154 H         1 <0>         0.0755
     35 H12         0.9348   -4.0882   -2.9020 H         1 <0>         0.1109
     36 H13         0.8180   -2.3067   -2.8567 H         1 <0>         0.0812
     37 H14         0.7782   -4.5254    0.4543 H         1 <0>         0.3884
     38 H15        -0.9709    1.0818    2.5866 H         1 <0>         0.1464
     39 H16        -2.9330    1.7124    3.9285 H         1 <0>         0.1726
     40 H17        -5.3014   -1.1182    2.0274 H         1 <0>         0.1721
     41 H18        -3.4273   -1.8443    0.6102 H         1 <0>         0.1424
     42 N3          0.8957   -0.7853   -0.6325 N.pl3     1 <0>        -0.4695
     43 H19         1.6838   -0.4463   -1.1965 H         1 <0>         0.4797
@<TRIPOS>BOND
     1    1    6 ar
     2    1    2 ar
     3    1   25 1
     4    2    3 ar
     5    2   26 1
     6    3    4 ar
     7    3   24 1
     8    4    5 ar
     9    4   27 1
    10    5    6 ar
    11    5   28 1
    12    6    7 1
    13    7    8 2
    14    7   42 1
    15    8    9 1
    16    8   18 1
    17    9   10 1
    18    9   11 1
    19   11   12 1
    20   11   42 2
    21   12   16 1
    22   12   13 1
    23   12   17 1
    24   13   14 1
    25   13   29 1
    26   13   30 1
    27   14   15 1
    28   14   31 1
    29   14   32 1
    30   15   16 1
    31   15   33 1
    32   15   34 1
    33   16   35 1
    34   16   36 1
    35   17   37 1
    36   18   23 ar
    37   18   19 ar
    38   19   20 ar
    39   19   38 1
    40   20   21 ar
    41   20   39 1
    42   21   22 ar
    43   22   23 ar
    44   22   40 1
    45   23   41 1
    46   42   43 1
@<TRIPOS>MOLECULE
ZINC03815719
   42    45     0     0     0
SMALL
USER_CHARGES

@<TRIPOS>ATOM
      1 C1         -1.2325    2.1608    0.0215 C.ar      1 <0>        -0.0626
      2 C2         -1.2456    3.5402    0.0352 C.ar      1 <0>        -0.1445
      3 C3         -0.0536    4.2466    0.0283 C.ar      1 <0>         0.1076
      4 C4          1.1567    3.5721    0.0128 C.ar      1 <0>        -0.1468
      5 C5          1.1802    2.1928    0.0045 C.ar      1 <0>        -0.0855
      6 C6         -0.0169    1.4773    0.0118 C.ar      1 <0>        -0.0310
      7 C7          0.0028   -0.0041    0.0029 C.2       1 <0>         0.0216
      8 C8         -0.8905   -0.8392    0.6500 C.2       1 <0>         0.0569
      9 N1         -0.4902   -2.1247    0.3623 N.2       1 <0>        -0.4532
     10 H1          1.6633   -0.4553   -1.1808 H         1 <0>         0.4277
     11 C9          0.6062   -2.0395   -0.4207 C.2       1 <0>         0.1765
     12 N2          0.8956   -0.7855   -0.6316 N.pl3     1 <0>        -0.5070
     13 C10         1.3773   -3.2132   -0.9671 C.3       1 <0>         0.2188
     14 C11         2.8527   -3.1284   -0.5247 C.3       1 <0>        -0.1496
     15 C12         3.6468   -3.6484   -1.7486 C.3       1 <0>        -0.1215
     16 C13         2.8519   -3.0670   -2.9440 C.3       1 <0>        -0.1267
     17 C14         1.3768   -3.1742   -2.5054 C.3       1 <0>        -0.1158
     18 O1          0.7972   -4.4360   -0.5083 O.3       1 <0>        -0.5291
     19 C15        -2.0411   -0.4339    1.4800 C.ar      1 <0>         0.0417
     20 C16        -1.9158    0.5798    2.4395 C.ar      1 <0>        -0.1554
     21 C17        -3.0183    0.9298    3.1891 C.ar      1 <0>         0.1009
     22 N3         -4.1755    0.3178    3.0199 N.ar      1 <0>        -0.4831
     23 C18        -4.3360   -0.6452    2.1315 C.ar      1 <0>         0.1011
     24 C19        -3.2886   -1.0557    1.3351 C.ar      1 <0>        -0.1467
     25 F1         -0.0714    5.5975    0.0364 F         1 <0>        -0.1345
     26 H2         -2.1621    1.6111    0.0224 H         1 <0>         0.1353
     27 H3         -2.1864    4.0704    0.0473 H         1 <0>         0.1426
     28 H4          2.0832    4.1271    0.0067 H         1 <0>         0.1412
     29 H5          2.1240    1.6680   -0.0080 H         1 <0>         0.1297
     30 H6          3.1258   -2.0967   -0.3031 H         1 <0>         0.0697
     31 H7          3.0281   -3.7651    0.3425 H         1 <0>         0.0841
     32 H8          3.6440   -4.7381   -1.7763 H         1 <0>         0.0782
     33 H9          4.6667   -3.2638   -1.7392 H         1 <0>         0.0741
     34 H10         3.0267   -3.6588   -3.8425 H         1 <0>         0.0780
     35 H11         3.1242   -2.0255   -3.1154 H         1 <0>         0.0670
     36 H12         0.9348   -4.0882   -2.9020 H         1 <0>         0.0931
     37 H13         0.8180   -2.3067   -2.8567 H         1 <0>         0.0724
     38 H14         0.7782   -4.5254    0.4543 H         1 <0>         0.3862
     39 H15        -0.9709    1.0818    2.5866 H         1 <0>         0.1334
     40 H16        -2.9330    1.7124    3.9285 H         1 <0>         0.1578
     41 H17        -5.3014   -1.1182    2.0274 H         1 <0>         0.1590
     42 H18        -3.4273   -1.8443    0.6102 H         1 <0>         0.1384
@<TRIPOS>BOND
     1    1    6 ar
     2    1    2 ar
     3    1   26 1
     4    2    3 ar
     5    2   27 1
     6    3    4 ar
     7    3   25 1
     8    4    5 ar
     9    4   28 1
    10    5    6 ar
    11    5   29 1
    12    6    7 1
    13    7   12 1
    14    7    8 2
    15    8    9 1
    16    8   19 1
    17    9   11 2
    18   10   12 1
    19   11   13 1
    20   11   12 1
    21   13   17 1
    22   13   14 1
    23   13   18 1
    24   14   15 1
    25   14   30 1
    26   14   31 1
    27   15   16 1
    28   15   32 1
    29   15   33 1
    30   16   17 1
    31   16   34 1
    32   16   35 1
    33   17   36 1
    34   17   37 1
    35   18   38 1
    36   19   24 ar
    37   19   20 ar
    38   20   21 ar
    39   20   39 1
    40   21   22 ar
    41   21   40 1
    42   22   23 ar
    43   23   24 ar
    44   23   41 1
    45   24   42 1
@<TRIPOS>MOLECULE
ZINC03815720
   38    41     0     0     0
SMALL
USER_CHARGES

@<TRIPOS>ATOM
      1 C1          4.3391   -0.1329    0.4432 C.ar      1 <0>        -0.0590
      2 C2          5.7138   -0.0502    0.3638 C.ar      1 <0>        -0.1457
      3 C3          6.3095    1.0218   -0.2814 C.ar      1 <0>         0.1102
      4 C4          5.5282    2.0127   -0.8539 C.ar      1 <0>        -0.1478
      5 C5          4.1526    1.9360   -0.7842 C.ar      1 <0>        -0.0817
      6 C6          3.5485    0.8589   -0.1364 C.ar      1 <0>        -0.0364
      7 C7          2.0713    0.7717   -0.0589 C.2       1 <0>         0.0325
      8 C8          1.3094   -0.3700   -0.2463 C.2       1 <0>         0.0606
      9 N1         -0.0041    0.0083   -0.0801 N.2       1 <0>        -0.4461
     10 H1          1.5054    2.7319    0.3720 H         1 <0>         0.4295
     11 C9         -0.0067    1.3455    0.1893 C.2       1 <0>         0.2347
     12 N2          1.2313    1.7859    0.1990 N.pl3     1 <0>        -0.5068
     13 C10        -1.2106    2.1683    0.4318 C.ar      1 <0>        -0.0143
     14 C11        -2.4781    1.5851    0.3894 C.ar      1 <0>        -0.0621
     15 C12        -3.5974    2.3570    0.6213 C.ar      1 <0>        -0.1053
     16 C13        -3.4662    3.7100    0.8858 C.ar      1 <0>        -0.0254
     17 C14        -2.2117    4.2953    0.9240 C.ar      1 <0>        -0.1040
     18 C15        -1.0848    3.5327    0.6985 C.ar      1 <0>        -0.1004
     19 Cl1        -4.8801    4.6763    1.1701 Cl        1 <0>        -0.0602
     20 C16         1.8070   -1.7240   -0.5530 C.ar      1 <0>         0.0409
     21 C17         2.7531   -1.9319   -1.5663 C.ar      1 <0>        -0.1528
     22 C18         3.1934   -3.2139   -1.8160 C.ar      1 <0>         0.1019
     23 N3          2.7296   -4.2372   -1.1231 N.ar      1 <0>        -0.4827
     24 C19         1.8353   -4.0872   -0.1639 C.ar      1 <0>         0.1011
     25 C20         1.3430   -2.8404    0.1567 C.ar      1 <0>        -0.1469
     26 F1          7.6563    1.1012   -0.3521 F         1 <0>        -0.1340
     27 H2          3.8758   -0.9665    0.9502 H         1 <0>         0.1352
     28 H3          6.3269   -0.8197    0.8091 H         1 <0>         0.1428
     29 H4          5.9970    2.8466   -1.3551 H         1 <0>         0.1418
     30 H5          3.5445    2.7090   -1.2305 H         1 <0>         0.1316
     31 H6         -2.5819    0.5309    0.1788 H         1 <0>         0.1484
     32 H7         -4.5784    1.9062    0.5921 H         1 <0>         0.1428
     33 H8         -2.1156    5.3510    1.1304 H         1 <0>         0.1410
     34 H9         -0.1070    3.9904    0.7278 H         1 <0>         0.1278
     35 H10         3.1338   -1.0998   -2.1401 H         1 <0>         0.1335
     36 H11         3.9246   -3.3840   -2.5924 H         1 <0>         0.1580
     37 H12         1.4841   -4.9535    0.3770 H         1 <0>         0.1590
     38 H13         0.6114   -2.7251    0.9427 H         1 <0>         0.1382
@<TRIPOS>BOND
     1    1    6 ar
     2    1    2 ar
     3    1   27 1
     4    2    3 ar
     5    2   28 1
     6    3    4 ar
     7    3   26 1
     8    4    5 ar
     9    4   29 1
    10    5    6 ar
    11    5   30 1
    12    6    7 1
    13    7   12 1
    14    7    8 2
    15    8    9 1
    16    8   20 1
    17    9   11 2
    18   10   12 1
    19   11   13 1
    20   11   12 1
    21   13   18 ar
    22   13   14 ar
    23   14   15 ar
    24   14   31 1
    25   15   16 ar
    26   15   32 1
    27   16   17 ar
    28   16   19 1
    29   17   18 ar
    30   17   33 1
    31   18   34 1
    32   20   25 ar
    33   20   21 ar
    34   21   22 ar
    35   21   35 1
    36   22   23 ar
    37   22   36 1
    38   23   24 ar
    39   24   25 ar
    40   24   37 1
    41   25   38 1
@<TRIPOS>MOLECULE
ZINC03815720
   39    42     0     0     0
SMALL
USER_CHARGES

@<TRIPOS>ATOM
      1 C1          4.3415   -0.1290    0.4237 C.ar      1 <0>        -0.0434
      2 C2          5.7158   -0.0450    0.3381 C.ar      1 <0>        -0.1465
      3 C3          6.3076    1.0275   -0.3097 C.ar      1 <0>         0.1434
      4 C4          5.5229    2.0177   -0.8787 C.ar      1 <0>        -0.1472
      5 C5          4.1477    1.9397   -0.8029 C.ar      1 <0>        -0.0613
      6 C6          3.5474    0.8621   -0.1523 C.ar      1 <0>        -0.0860
      7 C7          2.0707    0.7736   -0.0682 C.2       1 <0>         0.1158
      8 C8          1.3094   -0.3700   -0.2463 C.2       1 <0>         0.1184
      9 N1         -0.0041    0.0083   -0.0801 N.pl3     1 <0>        -0.5066
     10 H1         -0.8058   -0.5859   -0.1448 H         1 <0>         0.4719
     11 C9         -0.0067    1.3455    0.1893 C.cat     1 <0>         0.3901
     12 C10        -1.2106    2.1683    0.4318 C.ar      1 <0>        -0.0918
     13 C11        -2.4781    1.5851    0.3894 C.ar      1 <0>        -0.0582
     14 C12        -3.5974    2.3570    0.6213 C.ar      1 <0>        -0.0991
     15 C13        -3.4662    3.7100    0.8858 C.ar      1 <0>         0.0085
     16 C14        -2.2117    4.2953    0.9240 C.ar      1 <0>        -0.0985
     17 C15        -1.0848    3.5327    0.6985 C.ar      1 <0>        -0.0608
     18 Cl1        -4.8801    4.6763    1.1701 Cl        1 <0>        -0.0232
     19 C16         1.8070   -1.7240   -0.5530 C.ar      1 <0>        -0.0212
     20 C17         2.7531   -1.9319   -1.5663 C.ar      1 <0>        -0.1297
     21 C18         3.1934   -3.2139   -1.8160 C.ar      1 <0>         0.1173
     22 N2          2.7296   -4.2372   -1.1231 N.ar      1 <0>        -0.4576
     23 C19         1.8353   -4.0872   -0.1639 C.ar      1 <0>         0.1167
     24 C20         1.3430   -2.8404    0.1567 C.ar      1 <0>        -0.1482
     25 F1          7.6540    1.1081   -0.3865 F         1 <0>        -0.1205
     26 H2          3.8813   -0.9630    0.9328 H         1 <0>         0.1398
     27 H3          6.3316   -0.8140    0.7807 H         1 <0>         0.1528
     28 H4          5.9887    2.8520   -1.3820 H         1 <0>         0.1528
     29 H5          3.5369    2.7122   -1.2464 H         1 <0>         0.1385
     30 H6         -2.5819    0.5309    0.1788 H         1 <0>         0.1417
     31 H7         -4.5784    1.9062    0.5921 H         1 <0>         0.1581
     32 H8         -2.1156    5.3510    1.1304 H         1 <0>         0.1584
     33 H9         -0.1070    3.9904    0.7278 H         1 <0>         0.1418
     34 H10         3.1338   -1.0998   -2.1401 H         1 <0>         0.1460
     35 H11         3.9246   -3.3840   -2.5924 H         1 <0>         0.1720
     36 H12         1.4841   -4.9535    0.3770 H         1 <0>         0.1714
     37 H13         0.6114   -2.7251    0.9427 H         1 <0>         0.1423
     38 N3          1.2311    1.7876    0.1935 N.pl3     1 <0>        -0.4766
     39 H14         1.5125    2.7592    0.3699 H         1 <0>         0.4785
@<TRIPOS>BOND
     1    1    6 ar
     2    1    2 ar
     3    1   26 1
     4    2    3 ar
     5    2   27 1
     6    3    4 ar
     7    3   25 1
     8    4    5 ar
     9    4   28 1
    10    5    6 ar
    11    5   29 1
    12    6    7 1
    13    7    8 2
    14    7   38 1
    15    8    9 1
    16    8   19 1
    17    9   10 1
    18    9   11 1
    19   11   12 1
    20   11   38 2
    21   12   17 ar
    22   12   13 ar
    23   13   14 ar
    24   13   30 1
    25   14   15 ar
    26   14   31 1
    27   15   16 ar
    28   15   18 1
    29   16   17 ar
    30   16   32 1
    31   17   33 1
    32   19   24 ar
    33   19   20 ar
    34   20   21 ar
    35   20   34 1
    36   21   22 ar
    37   21   35 1
    38   22   23 ar
    39   23   24 ar
    40   23   36 1
    41   24   37 1
    42   38   39 1
@<TRIPOS>MOLECULE
ZINC03815720
   38    41     0     0     0
SMALL
USER_CHARGES

@<TRIPOS>ATOM
      1 C1          4.3391   -0.1329    0.4432 C.ar      1 <0>        -0.0590
      2 C2          5.7138   -0.0502    0.3638 C.ar      1 <0>        -0.1457
      3 C3          6.3095    1.0218   -0.2814 C.ar      1 <0>         0.1102
      4 C4          5.5282    2.0127   -0.8539 C.ar      1 <0>        -0.1478
      5 C5          4.1526    1.9360   -0.7842 C.ar      1 <0>        -0.0817
      6 C6          3.5485    0.8589   -0.1364 C.ar      1 <0>        -0.0364
      7 C7          2.0713    0.7717   -0.0589 C.2       1 <0>         0.0325
      8 C8          1.3094   -0.3700   -0.2463 C.2       1 <0>         0.0606
      9 N1         -0.0041    0.0083   -0.0801 N.2       1 <0>        -0.4461
     10 H1          1.5054    2.7319    0.3720 H         1 <0>         0.4295
     11 C9         -0.0067    1.3455    0.1893 C.2       1 <0>         0.2347
     12 N2          1.2313    1.7859    0.1990 N.pl3     1 <0>        -0.5068
     13 C10        -1.2106    2.1683    0.4318 C.ar      1 <0>        -0.0143
     14 C11        -2.4781    1.5851    0.3894 C.ar      1 <0>        -0.0621
     15 C12        -3.5974    2.3570    0.6213 C.ar      1 <0>        -0.1053
     16 C13        -3.4662    3.7100    0.8858 C.ar      1 <0>        -0.0254
     17 C14        -2.2117    4.2953    0.9240 C.ar      1 <0>        -0.1040
     18 C15        -1.0848    3.5327    0.6985 C.ar      1 <0>        -0.1004
     19 Cl1        -4.8801    4.6763    1.1701 Cl        1 <0>        -0.0602
     20 C16         1.8070   -1.7240   -0.5530 C.ar      1 <0>         0.0409
     21 C17         2.7531   -1.9319   -1.5663 C.ar      1 <0>        -0.1528
     22 C18         3.1934   -3.2139   -1.8160 C.ar      1 <0>         0.1019
     23 N3          2.7296   -4.2372   -1.1231 N.ar      1 <0>        -0.4827
     24 C19         1.8353   -4.0872   -0.1639 C.ar      1 <0>         0.1011
     25 C20         1.3430   -2.8404    0.1567 C.ar      1 <0>        -0.1469
     26 F1          7.6563    1.1012   -0.3521 F         1 <0>        -0.1340
     27 H2          3.8758   -0.9665    0.9502 H         1 <0>         0.1352
     28 H3          6.3269   -0.8197    0.8091 H         1 <0>         0.1428
     29 H4          5.9970    2.8466   -1.3551 H         1 <0>         0.1418
     30 H5          3.5445    2.7090   -1.2305 H         1 <0>         0.1316
     31 H6         -2.5819    0.5309    0.1788 H         1 <0>         0.1484
     32 H7         -4.5784    1.9062    0.5921 H         1 <0>         0.1428
     33 H8         -2.1156    5.3510    1.1304 H         1 <0>         0.1410
     34 H9         -0.1070    3.9904    0.7278 H         1 <0>         0.1278
     35 H10         3.1338   -1.0998   -2.1401 H         1 <0>         0.1335
     36 H11         3.9246   -3.3840   -2.5924 H         1 <0>         0.1580
     37 H12         1.4841   -4.9535    0.3770 H         1 <0>         0.1590
     38 H13         0.6114   -2.7251    0.9427 H         1 <0>         0.1382
@<TRIPOS>BOND
     1    1    6 ar
     2    1    2 ar
     3    1   27 1
     4    2    3 ar
     5    2   28 1
     6    3    4 ar
     7    3   26 1
     8    4    5 ar
     9    4   29 1
    10    5    6 ar
    11    5   30 1
    12    6    7 1
    13    7   12 1
    14    7    8 2
    15    8    9 1
    16    8   20 1
    17    9   11 2
    18   10   12 1
    19   11   13 1
    20   11   12 1
    21   13   18 ar
    22   13   14 ar
    23   14   15 ar
    24   14   31 1
    25   15   16 ar
    26   15   32 1
    27   16   17 ar
    28   16   19 1
    29   17   18 ar
    30   17   33 1
    31   18   34 1
    32   20   25 ar
    33   20   21 ar
    34   21   22 ar
    35   21   35 1
    36   22   23 ar
    37   22   36 1
    38   23   24 ar
    39   24   25 ar
    40   24   37 1
    41   25   38 1
@<TRIPOS>MOLECULE
ZINC03815721
   43    46     0     0     0
SMALL
USER_CHARGES

@<TRIPOS>ATOM
      1 C1         -5.6346    2.9929    8.7654 C.ar      1 <0>        -0.0574
      2 C2         -6.6378    2.5638    9.6097 C.ar      1 <0>        -0.1456
      3 C3         -7.6154    1.6993    9.1443 C.ar      1 <0>         0.1124
      4 C4         -7.5934    1.2649    7.8287 C.ar      1 <0>        -0.1478
      5 C5         -6.5971    1.6922    6.9755 C.ar      1 <0>        -0.0805
      6 C6         -5.6112    2.5627    7.4391 C.ar      1 <0>        -0.0400
      7 C7         -4.5385    3.0243    6.5269 C.2       1 <0>         0.0413
      8 C8         -4.0438    4.3151    6.4347 C.2       1 <0>         0.0612
      9 N1         -3.0632    4.2868    5.4687 N.2       1 <0>        -0.4370
     10 H1         -4.0383    1.2953    5.4743 H         1 <0>         0.4311
     11 C9         -2.9954    3.0071    5.0015 C.2       1 <0>         0.2171
     12 N2         -3.8800    2.2697    5.6340 N.pl3     1 <0>        -0.5034
     13 C10        -2.0733    2.5263    3.9507 C.ar      1 <0>         0.0471
     14 C11        -2.0979    1.1879    3.5553 C.ar      1 <0>        -0.1374
     15 C12        -1.2344    0.7456    2.5745 C.ar      1 <0>        -0.0099
     16 C13        -0.3454    1.6255    1.9830 C.ar      1 <0>        -0.6714
     17 C14        -0.3120    2.9522    2.3743 C.ar      1 <0>        -0.0113
     18 C15        -1.1740    3.4086    3.3499 C.ar      1 <0>        -0.0990
     19 S1          0.7540    1.0523    0.7310 S.o2      1 <0>         2.7018
     20 O1          0.9061   -0.3460    0.9332 O.2       1 <0>        -0.9607
     21 O2          1.8593    1.9453    0.7213 O.2       1 <0>        -0.9588
     22 N3         -0.0184    1.2393   -0.7218 N.pl3     1 <0>        -1.2492
     23 C16        -4.4753    5.4853    7.2220 C.ar      1 <0>         0.0389
     24 C17        -5.8350    5.7913    7.3722 C.ar      1 <0>        -0.1521
     25 C18        -6.1930    6.8914    8.1214 C.ar      1 <0>         0.1023
     26 N4         -5.2761    7.6570    8.6831 N.ar      1 <0>        -0.4816
     27 C19        -3.9852    7.4086    8.5627 C.ar      1 <0>         0.1018
     28 C20        -3.5371    6.3263    7.8364 C.ar      1 <0>        -0.1463
     29 F1         -8.5931    1.2780    9.9761 F         1 <0>        -0.1332
     30 H2         -4.8706    3.6635    9.1301 H         1 <0>         0.1357
     31 H3         -6.6587    2.8991   10.6361 H         1 <0>         0.1436
     32 H4         -8.3572    0.5904    7.4707 H         1 <0>         0.1425
     33 H5         -6.5805    1.3529    5.9503 H         1 <0>         0.1318
     34 H6         -2.7911    0.5000    4.0165 H         1 <0>         0.1304
     35 H7         -1.2522   -0.2898    2.2679 H         1 <0>         0.1506
     36 H8          0.3873    3.6329    1.9118 H         1 <0>         0.1524
     37 H9         -1.1500    4.4455    3.6513 H         1 <0>         0.1508
     38 H10        -0.9145    1.6094   -0.7506 H         1 <0>         0.4171
     39 H11         0.4254    0.9787   -1.5441 H         1 <0>         0.4227
     40 H12        -6.5905    5.1720    6.9116 H         1 <0>         0.1338
     41 H13        -7.2381    7.1333    8.2464 H         1 <0>         0.1585
     42 H14        -3.2704    8.0627    9.0396 H         1 <0>         0.1596
     43 H15        -2.4794    6.1290    7.7424 H         1 <0>         0.1384
@<TRIPOS>BOND
     1    1    6 ar
     2    1    2 ar
     3    1   30 1
     4    2    3 ar
     5    2   31 1
     6    3    4 ar
     7    3   29 1
     8    4    5 ar
     9    4   32 1
    10    5    6 ar
    11    5   33 1
    12    6    7 1
    13    7   12 1
    14    7    8 2
    15    8    9 1
    16    8   23 1
    17    9   11 2
    18   10   12 1
    19   11   13 1
    20   11   12 1
    21   13   18 ar
    22   13   14 ar
    23   14   15 ar
    24   14   34 1
    25   15   16 ar
    26   15   35 1
    27   16   17 ar
    28   16   19 1
    29   17   18 ar
    30   17   36 1
    31   18   37 1
    32   19   20 2
    33   19   21 2
    34   19   22 1
    35   22   38 1
    36   22   39 1
    37   23   28 ar
    38   23   24 ar
    39   24   25 ar
    40   24   40 1
    41   25   26 ar
    42   25   41 1
    43   26   27 ar
    44   27   28 ar
    45   27   42 1
    46   28   43 1
@<TRIPOS>MOLECULE
ZINC03815721
   44    47     0     0     0
SMALL
USER_CHARGES

@<TRIPOS>ATOM
      1 C1         -5.6508    2.9962    8.7540 C.ar      1 <0>        -0.0422
      2 C2         -6.6582    2.5685    9.5939 C.ar      1 <0>        -0.1463
      3 C3         -7.6352    1.7056    9.1241 C.ar      1 <0>         0.1453
      4 C4         -7.6082    1.2715    7.8085 C.ar      1 <0>        -0.1471
      5 C5         -6.6076    1.6974    6.9597 C.ar      1 <0>        -0.0605
      6 C6         -5.6223    2.5663    7.4277 C.ar      1 <0>        -0.0887
      7 C7         -4.5450    3.0264    6.5203 C.2       1 <0>         0.1202
      8 C8         -4.0438    4.3151    6.4347 C.2       1 <0>         0.1238
      9 N1         -3.0632    4.2868    5.4687 N.pl3     1 <0>        -0.4998
     10 H1         -2.5052    5.0596    5.1663 H         1 <0>         0.4734
     11 C9         -2.9954    3.0071    5.0015 C.cat     1 <0>         0.3717
     12 C10        -2.0733    2.5263    3.9507 C.ar      1 <0>        -0.0306
     13 C11        -2.0979    1.1879    3.5553 C.ar      1 <0>        -0.0988
     14 C12        -1.2344    0.7456    2.5745 C.ar      1 <0>        -0.0029
     15 C13        -0.3454    1.6255    1.9830 C.ar      1 <0>        -0.6386
     16 C14        -0.3120    2.9522    2.3743 C.ar      1 <0>        -0.0031
     17 C15        -1.1740    3.4086    3.3499 C.ar      1 <0>        -0.0963
     18 S1          0.7540    1.0523    0.7310 S.o2      1 <0>         2.6973
     19 O1          0.9061   -0.3460    0.9332 O.2       1 <0>        -0.9454
     20 O2          1.8593    1.9453    0.7213 O.2       1 <0>        -0.9455
     21 N2         -0.0184    1.2393   -0.7218 N.pl3     1 <0>        -1.2454
     22 C16        -4.4753    5.4853    7.2220 C.ar      1 <0>        -0.0241
     23 C17        -5.8350    5.7913    7.3722 C.ar      1 <0>        -0.1286
     24 C18        -6.1930    6.8914    8.1214 C.ar      1 <0>         0.1177
     25 N3         -5.2761    7.6570    8.6831 N.ar      1 <0>        -0.4562
     26 C19        -3.9852    7.4086    8.5627 C.ar      1 <0>         0.1174
     27 C20        -3.5371    6.3263    7.8364 C.ar      1 <0>        -0.1471
     28 F1         -8.6171    1.2857    9.9516 F         1 <0>        -0.1197
     29 H2         -4.8873    3.6655    9.1222 H         1 <0>         0.1402
     30 H3         -6.6830    2.9036   10.6203 H         1 <0>         0.1535
     31 H4         -8.3715    0.5983    7.4471 H         1 <0>         0.1535
     32 H5         -6.5871    1.3583    5.9345 H         1 <0>         0.1386
     33 H6         -2.7911    0.5000    4.0165 H         1 <0>         0.1446
     34 H7         -1.2522   -0.2898    2.2679 H         1 <0>         0.1675
     35 H8          0.3873    3.6329    1.9118 H         1 <0>         0.1673
     36 H9         -1.1500    4.4455    3.6513 H         1 <0>         0.1445
     37 H10        -0.9145    1.6094   -0.7506 H         1 <0>         0.4172
     38 H11         0.4254    0.9787   -1.5441 H         1 <0>         0.4290
     39 H12        -6.5905    5.1720    6.9116 H         1 <0>         0.1464
     40 H13        -7.2381    7.1333    8.2464 H         1 <0>         0.1727
     41 H14        -3.2704    8.0627    9.0396 H         1 <0>         0.1722
     42 H15        -2.4794    6.1290    7.7424 H         1 <0>         0.1428
     43 N4         -3.8840    2.2703    5.6299 N.pl3     1 <0>        -0.4698
     44 H16        -4.0474    1.2701    5.4650 H         1 <0>         0.4801
@<TRIPOS>BOND
     1    1    6 ar
     2    1    2 ar
     3    1   29 1
     4    2    3 ar
     5    2   30 1
     6    3    4 ar
     7    3   28 1
     8    4    5 ar
     9    4   31 1
    10    5    6 ar
    11    5   32 1
    12    6    7 1
    13    7    8 2
    14    7   43 1
    15    8    9 1
    16    8   22 1
    17    9   10 1
    18    9   11 1
    19   11   12 1
    20   11   43 2
    21   12   17 ar
    22   12   13 ar
    23   13   14 ar
    24   13   33 1
    25   14   15 ar
    26   14   34 1
    27   15   16 ar
    28   15   18 1
    29   16   17 ar
    30   16   35 1
    31   17   36 1
    32   18   19 2
    33   18   20 2
    34   18   21 1
    35   21   37 1
    36   21   38 1
    37   22   27 ar
    38   22   23 ar
    39   23   24 ar
    40   23   39 1
    41   24   25 ar
    42   24   40 1
    43   25   26 ar
    44   26   27 ar
    45   26   41 1
    46   27   42 1
    47   43   44 1
@<TRIPOS>MOLECULE
ZINC03815721
   43    46     0     0     0
SMALL
USER_CHARGES

@<TRIPOS>ATOM
      1 C1         -5.6346    2.9929    8.7654 C.ar      1 <0>        -0.0574
      2 C2         -6.6378    2.5638    9.6097 C.ar      1 <0>        -0.1456
      3 C3         -7.6154    1.6993    9.1443 C.ar      1 <0>         0.1124
      4 C4         -7.5934    1.2649    7.8287 C.ar      1 <0>        -0.1478
      5 C5         -6.5971    1.6922    6.9755 C.ar      1 <0>        -0.0805
      6 C6         -5.6112    2.5627    7.4391 C.ar      1 <0>        -0.0400
      7 C7         -4.5385    3.0243    6.5269 C.2       1 <0>         0.0413
      8 C8         -4.0438    4.3151    6.4347 C.2       1 <0>         0.0612
      9 N1         -3.0632    4.2868    5.4687 N.2       1 <0>        -0.4370
     10 H1         -4.0383    1.2953    5.4743 H         1 <0>         0.4311
     11 C9         -2.9954    3.0071    5.0015 C.2       1 <0>         0.2171
     12 N2         -3.8800    2.2697    5.6340 N.pl3     1 <0>        -0.5034
     13 C10        -2.0733    2.5263    3.9507 C.ar      1 <0>         0.0471
     14 C11        -2.0979    1.1879    3.5553 C.ar      1 <0>        -0.1374
     15 C12        -1.2344    0.7456    2.5745 C.ar      1 <0>        -0.0099
     16 C13        -0.3454    1.6255    1.9830 C.ar      1 <0>        -0.6714
     17 C14        -0.3120    2.9522    2.3743 C.ar      1 <0>        -0.0113
     18 C15        -1.1740    3.4086    3.3499 C.ar      1 <0>        -0.0990
     19 S1          0.7540    1.0523    0.7310 S.o2      1 <0>         2.7018
     20 O1          0.9061   -0.3460    0.9332 O.2       1 <0>        -0.9607
     21 O2          1.8593    1.9453    0.7213 O.2       1 <0>        -0.9588
     22 N3         -0.0184    1.2393   -0.7218 N.pl3     1 <0>        -1.2492
     23 C16        -4.4753    5.4853    7.2220 C.ar      1 <0>         0.0389
     24 C17        -5.8350    5.7913    7.3722 C.ar      1 <0>        -0.1521
     25 C18        -6.1930    6.8914    8.1214 C.ar      1 <0>         0.1023
     26 N4         -5.2761    7.6570    8.6831 N.ar      1 <0>        -0.4816
     27 C19        -3.9852    7.4086    8.5627 C.ar      1 <0>         0.1018
     28 C20        -3.5371    6.3263    7.8364 C.ar      1 <0>        -0.1463
     29 F1         -8.5931    1.2780    9.9761 F         1 <0>        -0.1332
     30 H2         -4.8706    3.6635    9.1301 H         1 <0>         0.1357
     31 H3         -6.6587    2.8991   10.6361 H         1 <0>         0.1436
     32 H4         -8.3572    0.5904    7.4707 H         1 <0>         0.1425
     33 H5         -6.5805    1.3529    5.9503 H         1 <0>         0.1318
     34 H6         -2.7911    0.5000    4.0165 H         1 <0>         0.1304
     35 H7         -1.2522   -0.2898    2.2679 H         1 <0>         0.1506
     36 H8          0.3873    3.6329    1.9118 H         1 <0>         0.1524
     37 H9         -1.1500    4.4455    3.6513 H         1 <0>         0.1508
     38 H10        -0.9145    1.6094   -0.7506 H         1 <0>         0.4171
     39 H11         0.4254    0.9787   -1.5441 H         1 <0>         0.4227
     40 H12        -6.5905    5.1720    6.9116 H         1 <0>         0.1338
     41 H13        -7.2381    7.1333    8.2464 H         1 <0>         0.1585
     42 H14        -3.2704    8.0627    9.0396 H         1 <0>         0.1596
     43 H15        -2.4794    6.1290    7.7424 H         1 <0>         0.1384
@<TRIPOS>BOND
     1    1    6 ar
     2    1    2 ar
     3    1   30 1
     4    2    3 ar
     5    2   31 1
     6    3    4 ar
     7    3   29 1
     8    4    5 ar
     9    4   32 1
    10    5    6 ar
    11    5   33 1
    12    6    7 1
    13    7   12 1
    14    7    8 2
    15    8    9 1
    16    8   23 1
    17    9   11 2
    18   10   12 1
    19   11   13 1
    20   11   12 1
    21   13   18 ar
    22   13   14 ar
    23   14   15 ar
    24   14   34 1
    25   15   16 ar
    26   15   35 1
    27   16   17 ar
    28   16   19 1
    29   17   18 ar
    30   17   36 1
    31   18   37 1
    32   19   20 2
    33   19   21 2
    34   19   22 1
    35   22   38 1
    36   22   39 1
    37   23   28 ar
    38   23   24 ar
    39   24   25 ar
    40   24   40 1
    41   25   26 ar
    42   25   41 1
    43   26   27 ar
    44   27   28 ar
    45   27   42 1
    46   28   43 1
@<TRIPOS>MOLECULE
ZINC03815722
   41    44     0     0     0
SMALL
USER_CHARGES

@<TRIPOS>ATOM
      1 C1          2.5993   10.7481    1.9456 C.ar      1 <0>        -0.1056
      2 C2          3.0457    9.4705    2.2339 C.ar      1 <0>        -0.1143
      3 C3          2.3641    8.3729    1.7501 C.ar      1 <0>        -0.1116
      4 C4          1.2220    8.5534    0.9684 C.ar      1 <0>        -0.0237
      5 C5          0.7802    9.8449    0.6769 C.ar      1 <0>        -0.0735
      6 C6          1.4677   10.9339    1.1716 C.ar      1 <0>        -0.1160
      7 C7          0.4869    7.3817    0.4462 C.2       1 <0>         0.2450
      8 N1         -0.6373    7.4330   -0.3246 N.2       1 <0>        -0.4492
      9 H1          1.5980    5.8129    1.1850 H         1 <0>         0.4294
     10 C8         -1.0004    6.1343   -0.6002 C.2       1 <0>         0.0649
     11 C9         -0.0703    5.3259    0.0329 C.2       1 <0>         0.0216
     12 N2          0.8126    6.1254    0.6508 N.pl3     1 <0>        -0.5079
     13 C10        -0.0502    3.8443    0.0238 C.ar      1 <0>        -0.0185
     14 C11        -1.2468    3.1279    0.0310 C.ar      1 <0>        -0.0607
     15 C12        -1.2219    1.7485    0.0177 C.ar      1 <0>        -0.1087
     16 C13        -0.0128    1.0758    0.0083 C.ar      1 <0>        -0.0650
     17 C14         1.1772    1.7809    0.0007 C.ar      1 <0>        -0.1749
     18 C15         1.1650    3.1609    0.0086 C.ar      1 <0>        -0.0667
     19 C16         2.4898    1.0406   -0.0158 C.3       1 <0>         0.5085
     20 F1          2.2480   -0.3374   -0.0208 F         1 <0>        -0.1737
     21 F2          3.2090    1.3920   -1.1632 F         1 <0>        -0.1743
     22 F3          3.2308    1.3798    1.1213 F         1 <0>        -0.1759
     23 C17        -2.1532    5.6910   -1.4066 C.ar      1 <0>         0.0395
     24 C18        -2.0150    4.6783   -2.3658 C.ar      1 <0>        -0.1556
     25 C19        -3.1201    4.2927   -3.0937 C.ar      1 <0>         0.1020
     26 N3         -4.2922    4.8693   -2.9039 N.ar      1 <0>        -0.4822
     27 C20        -4.4657    5.8294   -2.0149 C.ar      1 <0>         0.1018
     28 C21        -3.4167    6.2745   -1.2394 C.ar      1 <0>        -0.1457
     29 H2          3.1365   11.6040    2.3267 H         1 <0>         0.1284
     30 H3          3.9297    9.3323    2.8386 H         1 <0>         0.1298
     31 H4          2.7133    7.3763    1.9761 H         1 <0>         0.1174
     32 H5         -0.1005    9.9913    0.0692 H         1 <0>         0.1383
     33 H6          1.1243   11.9337    0.9506 H         1 <0>         0.1315
     34 H7         -2.1911    3.6519    0.0428 H         1 <0>         0.1361
     35 H8         -2.1478    1.1927    0.0190 H         1 <0>         0.1436
     36 H9          0.0019   -0.0041    0.0023 H         1 <0>         0.1443
     37 H10         2.0948    3.7103    0.0026 H         1 <0>         0.1309
     38 H11        -1.0580    4.2052   -2.5297 H         1 <0>         0.1338
     39 H12        -3.0247    3.5110   -3.8328 H         1 <0>         0.1586
     40 H13        -5.4430    6.2726   -1.8937 H         1 <0>         0.1595
     41 H14        -3.5660    7.0605   -0.5139 H         1 <0>         0.1390
@<TRIPOS>BOND
     1    1    6 ar
     2    1    2 ar
     3    1   29 1
     4    2    3 ar
     5    2   30 1
     6    3    4 ar
     7    3   31 1
     8    4    5 ar
     9    4    7 1
    10    5    6 ar
    11    5   32 1
    12    6   33 1
    13    7    8 2
    14    7   12 1
    15    8   10 1
    16    9   12 1
    17   10   11 2
    18   10   23 1
    19   11   12 1
    20   11   13 1
    21   13   18 ar
    22   13   14 ar
    23   14   15 ar
    24   14   34 1
    25   15   16 ar
    26   15   35 1
    27   16   17 ar
    28   16   36 1
    29   17   18 ar
    30   17   19 1
    31   18   37 1
    32   19   20 1
    33   19   21 1
    34   19   22 1
    35   23   28 ar
    36   23   24 ar
    37   24   25 ar
    38   24   38 1
    39   25   26 ar
    40   25   39 1
    41   26   27 ar
    42   27   28 ar
    43   27   40 1
    44   28   41 1
@<TRIPOS>MOLECULE
ZINC03815722
   42    45     0     0     0
SMALL
USER_CHARGES

@<TRIPOS>ATOM
      1 C1          2.5993   10.7481    1.9456 C.ar      1 <0>        -0.0621
      2 C2          3.0457    9.4705    2.2339 C.ar      1 <0>        -0.1052
      3 C3          2.3641    8.3729    1.7501 C.ar      1 <0>        -0.0740
      4 C4          1.2220    8.5534    0.9684 C.ar      1 <0>        -0.0970
      5 C5          0.7802    9.8449    0.6769 C.ar      1 <0>        -0.0713
      6 C6          1.4677   10.9339    1.1716 C.ar      1 <0>        -0.1061
      7 C7          0.4869    7.3817    0.4462 C.cat     1 <0>         0.3985
      8 N1         -0.6373    7.4330   -0.3246 N.pl3     1 <0>        -0.5087
      9 H1         -1.1092    8.2593   -0.6319 H         1 <0>         0.4722
     10 C8         -1.0004    6.1343   -0.6002 C.2       1 <0>         0.1208
     11 C9         -0.0702    5.3259    0.0328 C.2       1 <0>         0.1073
     12 C10        -0.0501    3.8443    0.0236 C.ar      1 <0>        -0.0651
     13 C11        -1.2467    3.1279    0.0308 C.ar      1 <0>        -0.0478
     14 C12        -1.2217    1.7485    0.0174 C.ar      1 <0>        -0.1050
     15 C13        -0.0126    1.0758    0.0080 C.ar      1 <0>        -0.0369
     16 C14         1.1774    1.7809    0.0004 C.ar      1 <0>        -0.1710
     17 C15         1.1651    3.1609    0.0084 C.ar      1 <0>        -0.0474
     18 C16         2.4900    1.0407   -0.0161 C.3       1 <0>         0.5078
     19 F1          2.2482   -0.3373   -0.0212 F         1 <0>        -0.1678
     20 F2          3.2092    1.3922   -1.1635 F         1 <0>        -0.1711
     21 F3          3.2310    1.3799    1.1210 F         1 <0>        -0.1725
     22 C17        -2.1532    5.6910   -1.4066 C.ar      1 <0>        -0.0218
     23 C18        -2.0150    4.6783   -2.3658 C.ar      1 <0>        -0.1332
     24 C19        -3.1201    4.2927   -3.0937 C.ar      1 <0>         0.1178
     25 N2         -4.2922    4.8693   -2.9039 N.ar      1 <0>        -0.4569
     26 C20        -4.4657    5.8294   -2.0149 C.ar      1 <0>         0.1178
     27 C21        -3.4167    6.2745   -1.2394 C.ar      1 <0>        -0.1477
     28 H2          3.1365   11.6040    2.3267 H         1 <0>         0.1461
     29 H3          3.9297    9.3323    2.8386 H         1 <0>         0.1481
     30 H4          2.7133    7.3763    1.9761 H         1 <0>         0.1318
     31 H5         -0.1005    9.9913    0.0692 H         1 <0>         0.1319
     32 H6          1.1243   11.9337    0.9506 H         1 <0>         0.1476
     33 H7         -2.1910    3.6518    0.0426 H         1 <0>         0.1409
     34 H8         -2.1476    1.1926    0.0187 H         1 <0>         0.1540
     35 H9          0.0021   -0.0041    0.0020 H         1 <0>         0.1552
     36 H10         2.0949    3.7104    0.0024 H         1 <0>         0.1381
     37 H11        -1.0580    4.2052   -2.5297 H         1 <0>         0.1463
     38 H12        -3.0247    3.5110   -3.8328 H         1 <0>         0.1728
     39 H13        -5.4430    6.2726   -1.8937 H         1 <0>         0.1720
     40 H14        -3.5660    7.0605   -0.5139 H         1 <0>         0.1426
     41 N3          0.8131    6.1252    0.6510 N.pl3     1 <0>        -0.4796
     42 H15         1.6196    5.8044    1.1996 H         1 <0>         0.4784
@<TRIPOS>BOND
     1    1    6 ar
     2    1    2 ar
     3    1   28 1
     4    2    3 ar
     5    2   29 1
     6    3    4 ar
     7    3   30 1
     8    4    5 ar
     9    4    7 1
    10    5    6 ar
    11    5   31 1
    12    6   32 1
    13    7    8 1
    14    7   41 2
    15    8    9 1
    16    8   10 1
    17   10   11 2
    18   10   22 1
    19   11   12 1
    20   11   41 1
    21   12   17 ar
    22   12   13 ar
    23   13   14 ar
    24   13   33 1
    25   14   15 ar
    26   14   34 1
    27   15   16 ar
    28   15   35 1
    29   16   17 ar
    30   16   18 1
    31   17   36 1
    32   18   19 1
    33   18   20 1
    34   18   21 1
    35   22   27 ar
    36   22   23 ar
    37   23   24 ar
    38   23   37 1
    39   24   25 ar
    40   24   38 1
    41   25   26 ar
    42   26   27 ar
    43   26   39 1
    44   27   40 1
    45   41   42 1
@<TRIPOS>MOLECULE
ZINC03815722
   41    44     0     0     0
SMALL
USER_CHARGES

@<TRIPOS>ATOM
      1 C1          2.5993   10.7481    1.9456 C.ar      1 <0>        -0.1056
      2 C2          3.0457    9.4705    2.2339 C.ar      1 <0>        -0.1143
      3 C3          2.3641    8.3729    1.7501 C.ar      1 <0>        -0.1116
      4 C4          1.2220    8.5534    0.9684 C.ar      1 <0>        -0.0237
      5 C5          0.7802    9.8449    0.6769 C.ar      1 <0>        -0.0735
      6 C6          1.4677   10.9339    1.1716 C.ar      1 <0>        -0.1160
      7 C7          0.4869    7.3817    0.4462 C.2       1 <0>         0.2450
      8 N1         -0.6373    7.4330   -0.3246 N.2       1 <0>        -0.4492
      9 H1          1.5980    5.8129    1.1850 H         1 <0>         0.4294
     10 C8         -1.0004    6.1343   -0.6002 C.2       1 <0>         0.0649
     11 C9         -0.0703    5.3259    0.0329 C.2       1 <0>         0.0216
     12 N2          0.8126    6.1254    0.6508 N.pl3     1 <0>        -0.5079
     13 C10        -0.0502    3.8443    0.0238 C.ar      1 <0>        -0.0185
     14 C11        -1.2468    3.1279    0.0310 C.ar      1 <0>        -0.0607
     15 C12        -1.2219    1.7485    0.0177 C.ar      1 <0>        -0.1087
     16 C13        -0.0128    1.0758    0.0083 C.ar      1 <0>        -0.0650
     17 C14         1.1772    1.7809    0.0007 C.ar      1 <0>        -0.1749
     18 C15         1.1650    3.1609    0.0086 C.ar      1 <0>        -0.0667
     19 C16         2.4898    1.0406   -0.0158 C.3       1 <0>         0.5085
     20 F1          2.2480   -0.3374   -0.0208 F         1 <0>        -0.1737
     21 F2          3.2090    1.3920   -1.1632 F         1 <0>        -0.1743
     22 F3          3.2308    1.3798    1.1213 F         1 <0>        -0.1759
     23 C17        -2.1532    5.6910   -1.4066 C.ar      1 <0>         0.0395
     24 C18        -2.0150    4.6783   -2.3658 C.ar      1 <0>        -0.1556
     25 C19        -3.1201    4.2927   -3.0937 C.ar      1 <0>         0.1020
     26 N3         -4.2922    4.8693   -2.9039 N.ar      1 <0>        -0.4822
     27 C20        -4.4657    5.8294   -2.0149 C.ar      1 <0>         0.1018
     28 C21        -3.4167    6.2745   -1.2394 C.ar      1 <0>        -0.1457
     29 H2          3.1365   11.6040    2.3267 H         1 <0>         0.1284
     30 H3          3.9297    9.3323    2.8386 H         1 <0>         0.1298
     31 H4          2.7133    7.3763    1.9761 H         1 <0>         0.1174
     32 H5         -0.1005    9.9913    0.0692 H         1 <0>         0.1383
     33 H6          1.1243   11.9337    0.9506 H         1 <0>         0.1315
     34 H7         -2.1911    3.6519    0.0428 H         1 <0>         0.1361
     35 H8         -2.1478    1.1927    0.0190 H         1 <0>         0.1436
     36 H9          0.0019   -0.0041    0.0023 H         1 <0>         0.1443
     37 H10         2.0948    3.7103    0.0026 H         1 <0>         0.1309
     38 H11        -1.0580    4.2052   -2.5297 H         1 <0>         0.1338
     39 H12        -3.0247    3.5110   -3.8328 H         1 <0>         0.1586
     40 H13        -5.4430    6.2726   -1.8937 H         1 <0>         0.1595
     41 H14        -3.5660    7.0605   -0.5139 H         1 <0>         0.1390
@<TRIPOS>BOND
     1    1    6 ar
     2    1    2 ar
     3    1   29 1
     4    2    3 ar
     5    2   30 1
     6    3    4 ar
     7    3   31 1
     8    4    5 ar
     9    4    7 1
    10    5    6 ar
    11    5   32 1
    12    6   33 1
    13    7    8 2
    14    7   12 1
    15    8   10 1
    16    9   12 1
    17   10   11 2
    18   10   23 1
    19   11   12 1
    20   11   13 1
    21   13   18 ar
    22   13   14 ar
    23   14   15 ar
    24   14   34 1
    25   15   16 ar
    26   15   35 1
    27   16   17 ar
    28   16   36 1
    29   17   18 ar
    30   17   19 1
    31   18   37 1
    32   19   20 1
    33   19   21 1
    34   19   22 1
    35   23   28 ar
    36   23   24 ar
    37   24   25 ar
    38   24   38 1
    39   25   26 ar
    40   25   39 1
    41   26   27 ar
    42   27   28 ar
    43   27   40 1
    44   28   41 1
@<TRIPOS>MOLECULE
ZINC03815723
   38    41     0     0     0
SMALL
USER_CHARGES

@<TRIPOS>ATOM
      1 C1         -2.9239    6.6590   -0.9564 C.ar      1 <0>        -0.0739
      2 C2         -3.6983    7.7199   -1.3781 C.ar      1 <0>        -0.1516
      3 C3         -3.5838    8.9538   -0.7581 C.ar      1 <0>         0.1025
      4 C4         -2.6953    9.1273    0.2909 C.ar      1 <0>        -0.1529
      5 C5         -1.9200    8.0713    0.7230 C.ar      1 <0>        -0.0615
      6 C6         -2.0319    6.8273    0.1024 C.ar      1 <0>        -0.0169
      7 C7         -1.2017    5.6898    0.5626 C.2       1 <0>         0.0717
      8 C8         -1.5811    4.3599    0.5980 C.2       1 <0>         0.0154
      9 N1         -0.4996    3.6660    1.0920 N.pl3     1 <0>        -0.4422
     10 C9          0.4762    4.5650    1.3411 C.2       1 <0>         0.2060
     11 N2          0.0609    5.7595    1.0226 N.2       1 <0>        -0.4768
     12 C10        -0.4237    2.2196    1.3125 C.3       1 <0>         0.1334
     13 C11        -0.0187    1.5258    0.0104 C.3       1 <0>        -0.1866
     14 C12         1.3165    0.7789   -0.0063 C.3       1 <0>        -0.1707
     15 C13         0.0021   -0.0041    0.0020 C.3       1 <0>        -0.1649
     16 C14        -2.8829    3.7983    0.1888 C.ar      1 <0>         0.0299
     17 C15        -2.9527    2.6436   -0.6021 C.ar      1 <0>        -0.1724
     18 C16        -4.1902    2.1508   -0.9567 C.ar      1 <0>         0.1053
     19 N3         -5.2975    2.7568   -0.5705 N.ar      1 <0>        -0.4809
     20 C17        -5.2772    3.8490    0.1704 C.ar      1 <0>         0.1059
     21 C18        -4.0840    4.4080    0.5753 C.ar      1 <0>        -0.1469
     22 F1         -4.3407    9.9911   -1.1780 F         1 <0>        -0.1382
     23 H1         -3.0108    5.6988   -1.4430 H         1 <0>         0.1282
     24 H2         -4.3920    7.5896   -2.1956 H         1 <0>         0.1376
     25 H3         -2.6093   10.0910    0.7708 H         1 <0>         0.1390
     26 H4         -1.2272    8.2077    1.5402 H         1 <0>         0.1384
     27 H5          1.4518    4.3307    1.7406 H         1 <0>         0.2113
     28 H6         -1.3973    1.8495    1.6338 H         1 <0>         0.0966
     29 H7          0.3178    2.0080    2.0829 H         1 <0>         0.1026
     30 H8         -0.3248    2.0300   -0.9061 H         1 <0>         0.1138
     31 H9          1.8888    0.7918   -0.9339 H         1 <0>         0.0997
     32 H10         1.9064    0.7818    0.9103 H         1 <0>         0.0997
     33 H11        -0.2728   -0.5162    0.9241 H         1 <0>         0.1005
     34 H12        -0.2904   -0.5063   -0.9201 H         1 <0>         0.1024
     35 H13        -2.0508    2.1453   -0.9258 H         1 <0>         0.1386
     36 H14        -4.2547    1.2591   -1.5626 H         1 <0>         0.1585
     37 H15        -6.2083    4.3113    0.4630 H         1 <0>         0.1608
     38 H16        -4.0750    5.3018    1.1815 H         1 <0>         0.1386
@<TRIPOS>BOND
     1    1    6 ar
     2    1    2 ar
     3    1   23 1
     4    2    3 ar
     5    2   24 1
     6    3    4 ar
     7    3   22 1
     8    4    5 ar
     9    4   25 1
    10    5    6 ar
    11    5   26 1
    12    6    7 1
    13    7   11 1
    14    7    8 2
    15    8    9 1
    16    8   16 1
    17    9   10 1
    18    9   12 1
    19   10   11 2
    20   10   27 1
    21   12   13 1
    22   12   28 1
    23   12   29 1
    24   13   15 1
    25   13   14 1
    26   13   30 1
    27   14   15 1
    28   14   31 1
    29   14   32 1
    30   15   33 1
    31   15   34 1
    32   16   21 ar
    33   16   17 ar
    34   17   18 ar
    35   17   35 1
    36   18   19 ar
    37   18   36 1
    38   19   20 ar
    39   20   21 ar
    40   20   37 1
    41   21   38 1
@<TRIPOS>MOLECULE
ZINC03815723
   39    42     0     0     0
SMALL
USER_CHARGES

@<TRIPOS>ATOM
      1 C1         -2.9239    6.6590   -0.9564 C.ar      1 <0>        -0.0470
      2 C2         -3.6983    7.7199   -1.3781 C.ar      1 <0>        -0.1463
      3 C3         -3.5838    8.9538   -0.7581 C.ar      1 <0>         0.1418
      4 C4         -2.6953    9.1273    0.2909 C.ar      1 <0>        -0.1471
      5 C5         -1.9200    8.0713    0.7230 C.ar      1 <0>        -0.0629
      6 C6         -2.0319    6.8273    0.1024 C.ar      1 <0>        -0.0820
      7 C7         -1.2017    5.6898    0.5626 C.2       1 <0>         0.1078
      8 C8         -1.5811    4.3599    0.5980 C.2       1 <0>         0.1030
      9 N1         -0.4996    3.6660    1.0920 N.pl3     1 <0>        -0.3947
     10 C9          0.4762    4.5650    1.3411 C.cat     1 <0>         0.2999
     11 C10        -0.4237    2.2196    1.3125 C.3       1 <0>         0.1224
     12 C11        -0.0187    1.5258    0.0104 C.3       1 <0>        -0.2080
     13 C12         1.3165    0.7789   -0.0063 C.3       1 <0>        -0.1664
     14 C13         0.0021   -0.0041    0.0020 C.3       1 <0>        -0.1517
     15 C14        -2.8829    3.7983    0.1888 C.ar      1 <0>        -0.0171
     16 C15        -2.9527    2.6436   -0.6021 C.ar      1 <0>        -0.1546
     17 C16        -4.1902    2.1508   -0.9567 C.ar      1 <0>         0.1162
     18 N2         -5.2975    2.7568   -0.5705 N.ar      1 <0>        -0.4582
     19 C17        -5.2772    3.8490    0.1704 C.ar      1 <0>         0.1160
     20 C18        -4.0840    4.4080    0.5753 C.ar      1 <0>        -0.1336
     21 F1         -4.3407    9.9911   -1.1780 F         1 <0>        -0.1209
     22 H1         -3.0108    5.6988   -1.4430 H         1 <0>         0.1389
     23 H2         -4.3920    7.5896   -2.1956 H         1 <0>         0.1523
     24 H3         -2.6093   10.0910    0.7708 H         1 <0>         0.1524
     25 H4         -1.2272    8.2077    1.5402 H         1 <0>         0.1377
     26 H5          1.4518    4.3307    1.7406 H         1 <0>         0.2643
     27 H6         -1.3973    1.8495    1.6338 H         1 <0>         0.1246
     28 H7          0.3178    2.0080    2.0829 H         1 <0>         0.1276
     29 H8         -0.3248    2.0300   -0.9061 H         1 <0>         0.1197
     30 H9          1.8888    0.7918   -0.9339 H         1 <0>         0.1071
     31 H10         1.9064    0.7818    0.9103 H         1 <0>         0.1053
     32 H11        -0.2728   -0.5162    0.9241 H         1 <0>         0.1079
     33 H12        -0.2904   -0.5063   -0.9201 H         1 <0>         0.1115
     34 H13        -2.0508    2.1453   -0.9258 H         1 <0>         0.1453
     35 H14        -4.2547    1.2591   -1.5626 H         1 <0>         0.1700
     36 H15        -6.2083    4.3113    0.4630 H         1 <0>         0.1713
     37 H16        -4.0750    5.3018    1.1815 H         1 <0>         0.1452
     38 N3          0.0612    5.7600    1.0227 N.pl3     1 <0>        -0.4791
     39 H17         0.6130    6.6215    1.1096 H         1 <0>         0.4814
@<TRIPOS>BOND
     1    1    6 ar
     2    1    2 ar
     3    1   22 1
     4    2    3 ar
     5    2   23 1
     6    3    4 ar
     7    3   21 1
     8    4    5 ar
     9    4   24 1
    10    5    6 ar
    11    5   25 1
    12    6    7 1
    13    7    8 2
    14    7   38 1
    15    8    9 1
    16    8   15 1
    17    9   10 1
    18    9   11 1
    19   10   26 1
    20   10   38 2
    21   11   12 1
    22   11   27 1
    23   11   28 1
    24   12   14 1
    25   12   13 1
    26   12   29 1
    27   13   14 1
    28   13   30 1
    29   13   31 1
    30   14   32 1
    31   14   33 1
    32   15   20 ar
    33   15   16 ar
    34   16   17 ar
    35   16   34 1
    36   17   18 ar
    37   17   35 1
    38   18   19 ar
    39   19   20 ar
    40   19   36 1
    41   20   37 1
    42   38   39 1
@<TRIPOS>MOLECULE
ZINC03815724
   48    51     0     0     0
SMALL
USER_CHARGES

@<TRIPOS>ATOM
      1 C1         -2.1217    2.3730   -2.6099 C.3       1 <0>        -0.0419
      2 C2         -0.2016    2.3161   -1.1367 C.3       1 <0>         0.0077
      3 C3          0.3942    1.6184    0.0882 C.3       1 <0>        -0.1503
      4 C4         -0.4795    1.9092    1.3115 C.3       1 <0>         0.2249
      5 C5         -1.9092    1.4358    1.0309 C.3       1 <0>        -0.1680
      6 C6         -2.4382    2.1388   -0.2213 C.3       1 <0>         0.0023
      7 C7          0.0695    1.1761    2.5082 C.2       1 <0>         0.1441
      8 N1         -0.4570    1.2099    3.7508 N.2       1 <0>        -0.4477
      9 H1          1.6931    0.2177    1.7018 H         1 <0>         0.4268
     10 C8          0.3302    0.4140    4.5522 C.2       1 <0>         0.0692
     11 C9          1.3363   -0.0759    3.7387 C.2       1 <0>         0.0459
     12 N2          1.1261    0.4117    2.5024 N.pl3     1 <0>        -0.5059
     13 C10         2.4350   -0.9805    4.1501 C.ar      1 <0>        -0.0490
     14 C11         3.0995   -0.7701    5.3581 C.ar      1 <0>        -0.0554
     15 C12         4.1190   -1.6179    5.7388 C.ar      1 <0>        -0.1446
     16 C13         4.4899   -2.6711    4.9185 C.ar      1 <0>         0.1191
     17 C14         3.8360   -2.8815    3.7150 C.ar      1 <0>        -0.1488
     18 C15         2.8121   -2.0421    3.3278 C.ar      1 <0>        -0.0808
     19 F1          5.4928   -3.4953    5.2930 F         1 <0>        -0.1294
     20 C16         0.1442    0.1457    5.9912 C.ar      1 <0>         0.0304
     21 C17         0.2037   -1.1611    6.4940 C.ar      1 <0>        -0.1524
     22 C18         0.0288   -1.3650    7.8460 C.ar      1 <0>         0.1053
     23 N3         -0.2018   -0.3522    8.6604 N.ar      1 <0>        -0.4771
     24 C19        -0.2708    0.8932    8.2283 C.ar      1 <0>         0.1042
     25 C20        -0.1028    1.1898    6.8928 C.ar      1 <0>        -0.1468
     26 O1         -0.4843    3.3144    1.5716 O.3       1 <0>        -0.5414
     27 H2         -1.4977    2.0656   -3.4490 H         1 <0>         0.1230
     28 H3         -3.1344    1.9960   -2.7529 H         1 <0>         0.1237
     29 H4         -2.1438    3.4613   -2.5530 H         1 <0>         0.1252
     30 H5         -0.2234    3.3925   -0.9667 H         1 <0>         0.1436
     31 H6          0.4108    2.0990   -2.0120 H         1 <0>         0.1354
     32 H7          0.4292    0.5430   -0.0867 H         1 <0>         0.1028
     33 H8          1.4031    1.9913    0.2645 H         1 <0>         0.1236
     34 H9         -2.5463    1.6789    1.8813 H         1 <0>         0.1285
     35 H10        -1.9112    0.3576    0.8712 H         1 <0>         0.0992
     36 H11        -2.4496    3.2161   -0.0555 H         1 <0>         0.1394
     37 H12        -3.4503    1.7930   -0.4315 H         1 <0>         0.1349
     38 H13         2.8139    0.0532    5.9961 H         1 <0>         0.1356
     39 H14         4.6313   -1.4581    6.6760 H         1 <0>         0.1460
     40 H15         4.1288   -3.7039    3.0790 H         1 <0>         0.1437
     41 H16         2.3035   -2.2065    2.3894 H         1 <0>         0.1286
     42 H17         0.3878   -1.9950    5.8330 H         1 <0>         0.1334
     43 H18         0.0765   -2.3680    8.2438 H         1 <0>         0.1604
     44 H19        -0.4619    1.6907    8.9310 H         1 <0>         0.1611
     45 H20        -0.1602    2.2111    6.5465 H         1 <0>         0.1371
     46 H21        -1.0194    3.5712    2.3351 H         1 <0>         0.4046
     47 N4         -1.5674    1.7988   -1.3665 N.4       1 <0>        -0.3975
     48 H22        -1.5252    0.7773   -1.4609 H         1 <0>         0.4269
@<TRIPOS>BOND
     1    1   27 1
     2    1   28 1
     3    1   29 1
     4    1   47 1
     5    2    3 1
     6    2   30 1
     7    2   31 1
     8    2   47 1
     9    3    4 1
    10    3   32 1
    11    3   33 1
    12    4    5 1
    13    4    7 1
    14    4   26 1
    15    5    6 1
    16    5   34 1
    17    5   35 1
    18    6   36 1
    19    6   37 1
    20    6   47 1
    21    7    8 2
    22    7   12 1
    23    8   10 1
    24    9   12 1
    25   10   11 2
    26   10   20 1
    27   11   12 1
    28   11   13 1
    29   13   18 ar
    30   13   14 ar
    31   14   15 ar
    32   14   38 1
    33   15   16 ar
    34   15   39 1
    35   16   17 ar
    36   16   19 1
    37   17   18 ar
    38   17   40 1
    39   18   41 1
    40   20   25 ar
    41   20   21 ar
    42   21   22 ar
    43   21   42 1
    44   22   23 ar
    45   22   43 1
    46   23   24 ar
    47   24   25 ar
    48   24   44 1
    49   25   45 1
    50   26   46 1
    51   47   48 1
@<TRIPOS>MOLECULE
ZINC03815724
   49    52     0     0     0
SMALL
USER_CHARGES

@<TRIPOS>ATOM
      1 C1         -2.1217    2.3730   -2.6099 C.3       1 <0>        -0.0445
      2 C2         -0.2016    2.3161   -1.1367 C.3       1 <0>         0.0059
      3 C3          0.3942    1.6184    0.0882 C.3       1 <0>        -0.1548
      4 C4         -0.4795    1.9092    1.3115 C.3       1 <0>         0.1929
      5 C5         -1.9092    1.4358    1.0309 C.3       1 <0>        -0.1811
      6 C6         -2.4382    2.1388   -0.2213 C.3       1 <0>         0.0032
      7 C7          0.0695    1.1761    2.5082 C.cat     1 <0>         0.2646
      8 N1         -0.4570    1.2099    3.7508 N.pl3     1 <0>        -0.4911
      9 H1         -1.2689    1.7190    4.0364 H         1 <0>         0.4725
     10 C8          0.3302    0.4140    4.5522 C.2       1 <0>         0.1347
     11 C9          1.3308   -0.0835    3.7366 C.2       1 <0>         0.1285
     12 C10         2.4256   -0.9936    4.1465 C.ar      1 <0>        -0.1006
     13 C11         3.0908   -0.7882    5.3549 C.ar      1 <0>        -0.0390
     14 C12         4.1066   -1.6410    5.7342 C.ar      1 <0>        -0.1451
     15 C13         4.4731   -2.6943    4.9120 C.ar      1 <0>         0.1540
     16 C14         3.8185   -2.8998    3.7081 C.ar      1 <0>        -0.1476
     17 C15         2.7982   -2.0553    3.3223 C.ar      1 <0>        -0.0599
     18 F1          5.4724   -3.5235    5.2851 F         1 <0>        -0.1148
     19 C16         0.1442    0.1457    5.9912 C.ar      1 <0>        -0.0350
     20 C17         0.2037   -1.1611    6.4940 C.ar      1 <0>        -0.1275
     21 C18         0.0288   -1.3650    7.8460 C.ar      1 <0>         0.1214
     22 N2         -0.2018   -0.3522    8.6604 N.ar      1 <0>        -0.4502
     23 C19        -0.2708    0.8932    8.2283 C.ar      1 <0>         0.1205
     24 C20        -0.1028    1.1898    6.8928 C.ar      1 <0>        -0.1467
     25 O1         -0.4843    3.3144    1.5716 O.3       1 <0>        -0.5155
     26 H2         -1.4977    2.0656   -3.4490 H         1 <0>         0.1296
     27 H3         -3.1344    1.9960   -2.7529 H         1 <0>         0.1290
     28 H4         -2.1438    3.4613   -2.5530 H         1 <0>         0.1295
     29 H5         -0.2234    3.3925   -0.9667 H         1 <0>         0.1501
     30 H6          0.4108    2.0990   -2.0120 H         1 <0>         0.1485
     31 H7          0.4292    0.5430   -0.0867 H         1 <0>         0.1154
     32 H8          1.4031    1.9913    0.2645 H         1 <0>         0.1362
     33 H9         -2.5463    1.6789    1.8813 H         1 <0>         0.1258
     34 H10        -1.9112    0.3576    0.8712 H         1 <0>         0.1160
     35 H11        -2.4496    3.2161   -0.0555 H         1 <0>         0.1460
     36 H12        -3.4503    1.7930   -0.4315 H         1 <0>         0.1472
     37 H13         2.8087    0.0352    5.9944 H         1 <0>         0.1407
     38 H14         4.6195   -1.4851    6.6717 H         1 <0>         0.1567
     39 H15         4.1078   -3.7222    3.0706 H         1 <0>         0.1555
     40 H16         2.2890   -2.2158    2.3835 H         1 <0>         0.1359
     41 H17         0.3878   -1.9950    5.8330 H         1 <0>         0.1468
     42 H18         0.0765   -2.3680    8.2438 H         1 <0>         0.1753
     43 H19        -0.4619    1.6907    8.9310 H         1 <0>         0.1744
     44 H20        -0.1602    2.2111    6.5465 H         1 <0>         0.1420
     45 H21        -1.0194    3.5712    2.3351 H         1 <0>         0.4031
     46 N3         -1.5674    1.7988   -1.3665 N.4       1 <0>        -0.3991
     47 H22        -1.5252    0.7773   -1.4609 H         1 <0>         0.4300
     48 N4          1.1231    0.4071    2.5006 N.pl3     1 <0>        -0.4586
     49 H23         1.7045    0.2069    1.6784 H         1 <0>         0.4788
@<TRIPOS>BOND
     1    1   26 1
     2    1   27 1
     3    1   28 1
     4    1   46 1
     5    2    3 1
     6    2   29 1
     7    2   30 1
     8    2   46 1
     9    3    4 1
    10    3   31 1
    11    3   32 1
    12    4    5 1
    13    4    7 1
    14    4   25 1
    15    5    6 1
    16    5   33 1
    17    5   34 1
    18    6   35 1
    19    6   36 1
    20    6   46 1
    21    7    8 1
    22    7   48 2
    23    8    9 1
    24    8   10 1
    25   10   11 2
    26   10   19 1
    27   11   12 1
    28   11   48 1
    29   12   17 ar
    30   12   13 ar
    31   13   14 ar
    32   13   37 1
    33   14   15 ar
    34   14   38 1
    35   15   16 ar
    36   15   18 1
    37   16   17 ar
    38   16   39 1
    39   17   40 1
    40   19   24 ar
    41   19   20 ar
    42   20   21 ar
    43   20   41 1
    44   21   22 ar
    45   21   42 1
    46   22   23 ar
    47   23   24 ar
    48   23   43 1
    49   24   44 1
    50   25   45 1
    51   46   47 1
    52   48   49 1
@<TRIPOS>MOLECULE
ZINC03815724
   48    51     0     0     0
SMALL
USER_CHARGES

@<TRIPOS>ATOM
      1 C1         -2.1217    2.3730   -2.6099 C.3       1 <0>        -0.0419
      2 C2         -0.2016    2.3161   -1.1367 C.3       1 <0>         0.0077
      3 C3          0.3942    1.6184    0.0882 C.3       1 <0>        -0.1503
      4 C4         -0.4795    1.9092    1.3115 C.3       1 <0>         0.2249
      5 C5         -1.9092    1.4358    1.0309 C.3       1 <0>        -0.1680
      6 C6         -2.4382    2.1388   -0.2213 C.3       1 <0>         0.0023
      7 C7          0.0695    1.1761    2.5082 C.2       1 <0>         0.1441
      8 N1         -0.4570    1.2099    3.7508 N.2       1 <0>        -0.4477
      9 H1          1.6931    0.2177    1.7018 H         1 <0>         0.4268
     10 C8          0.3302    0.4140    4.5522 C.2       1 <0>         0.0692
     11 C9          1.3363   -0.0759    3.7387 C.2       1 <0>         0.0459
     12 N2          1.1261    0.4117    2.5024 N.pl3     1 <0>        -0.5059
     13 C10         2.4350   -0.9805    4.1501 C.ar      1 <0>        -0.0490
     14 C11         3.0995   -0.7701    5.3581 C.ar      1 <0>        -0.0554
     15 C12         4.1190   -1.6179    5.7388 C.ar      1 <0>        -0.1446
     16 C13         4.4899   -2.6711    4.9185 C.ar      1 <0>         0.1191
     17 C14         3.8360   -2.8815    3.7150 C.ar      1 <0>        -0.1488
     18 C15         2.8121   -2.0421    3.3278 C.ar      1 <0>        -0.0808
     19 F1          5.4928   -3.4953    5.2930 F         1 <0>        -0.1294
     20 C16         0.1442    0.1457    5.9912 C.ar      1 <0>         0.0304
     21 C17         0.2037   -1.1611    6.4940 C.ar      1 <0>        -0.1524
     22 C18         0.0288   -1.3650    7.8460 C.ar      1 <0>         0.1053
     23 N3         -0.2018   -0.3522    8.6604 N.ar      1 <0>        -0.4771
     24 C19        -0.2708    0.8932    8.2283 C.ar      1 <0>         0.1042
     25 C20        -0.1028    1.1898    6.8928 C.ar      1 <0>        -0.1468
     26 O1         -0.4843    3.3144    1.5716 O.3       1 <0>        -0.5414
     27 H2         -1.4977    2.0656   -3.4490 H         1 <0>         0.1230
     28 H3         -3.1344    1.9960   -2.7529 H         1 <0>         0.1237
     29 H4         -2.1438    3.4613   -2.5530 H         1 <0>         0.1252
     30 H5         -0.2234    3.3925   -0.9667 H         1 <0>         0.1436
     31 H6          0.4108    2.0990   -2.0120 H         1 <0>         0.1354
     32 H7          0.4292    0.5430   -0.0867 H         1 <0>         0.1028
     33 H8          1.4031    1.9913    0.2645 H         1 <0>         0.1236
     34 H9         -2.5463    1.6789    1.8813 H         1 <0>         0.1285
     35 H10        -1.9112    0.3576    0.8712 H         1 <0>         0.0992
     36 H11        -2.4496    3.2161   -0.0555 H         1 <0>         0.1394
     37 H12        -3.4503    1.7930   -0.4315 H         1 <0>         0.1349
     38 H13         2.8139    0.0532    5.9961 H         1 <0>         0.1356
     39 H14         4.6313   -1.4581    6.6760 H         1 <0>         0.1460
     40 H15         4.1288   -3.7039    3.0790 H         1 <0>         0.1437
     41 H16         2.3035   -2.2065    2.3894 H         1 <0>         0.1286
     42 H17         0.3878   -1.9950    5.8330 H         1 <0>         0.1334
     43 H18         0.0765   -2.3680    8.2438 H         1 <0>         0.1604
     44 H19        -0.4619    1.6907    8.9310 H         1 <0>         0.1611
     45 H20        -0.1602    2.2111    6.5465 H         1 <0>         0.1371
     46 H21        -1.0194    3.5712    2.3351 H         1 <0>         0.4046
     47 N4         -1.5674    1.7988   -1.3665 N.4       1 <0>        -0.3975
     48 H22        -1.5252    0.7773   -1.4609 H         1 <0>         0.4269
@<TRIPOS>BOND
     1    1   27 1
     2    1   28 1
     3    1   29 1
     4    1   47 1
     5    2    3 1
     6    2   30 1
     7    2   31 1
     8    2   47 1
     9    3    4 1
    10    3   32 1
    11    3   33 1
    12    4    5 1
    13    4    7 1
    14    4   26 1
    15    5    6 1
    16    5   34 1
    17    5   35 1
    18    6   36 1
    19    6   37 1
    20    6   47 1
    21    7    8 2
    22    7   12 1
    23    8   10 1
    24    9   12 1
    25   10   11 2
    26   10   20 1
    27   11   12 1
    28   11   13 1
    29   13   18 ar
    30   13   14 ar
    31   14   15 ar
    32   14   38 1
    33   15   16 ar
    34   15   39 1
    35   16   17 ar
    36   16   19 1
    37   17   18 ar
    38   17   40 1
    39   18   41 1
    40   20   25 ar
    41   20   21 ar
    42   21   22 ar
    43   21   42 1
    44   22   23 ar
    45   22   43 1
    46   23   24 ar
    47   24   25 ar
    48   24   44 1
    49   25   45 1
    50   26   46 1
    51   47   48 1
@<TRIPOS>MOLECULE
ZINC03815725
   39    42     0     0     0
SMALL
USER_CHARGES

@<TRIPOS>ATOM
      1 C1         -2.1979    4.2973    0.9192 C.ar      1 <0>        -0.0626
      2 C2         -1.0811    3.5337    0.6959 C.ar      1 <0>        -0.1145
      3 C3         -1.2103    2.1683    0.4282 C.ar      1 <0>         0.0134
      4 C4         -2.4778    1.5818    0.3823 C.ar      1 <0>        -0.0765
      5 C5         -3.5946    2.3437    0.6111 C.ar      1 <0>        -0.0640
      6 C6         -3.4657    3.7097    0.8790 C.ar      1 <0>        -0.0166
      7 C7         -4.6323    4.5070    1.1117 C.1       1 <0>         0.2471
      8 N1         -5.5577    5.1395    1.2963 N.1       1 <0>        -0.4045
      9 C8         -0.0069    1.3459    0.1877 C.2       1 <0>         0.2258
     10 N2         -0.0041    0.0084   -0.0826 N.2       1 <0>        -0.4415
     11 H1          1.5058    2.7318    0.3740 H         1 <0>         0.4305
     12 C9          1.3083   -0.3698   -0.2463 C.2       1 <0>         0.0611
     13 C10         2.0709    0.7724   -0.0564 C.2       1 <0>         0.0361
     14 N3          1.2316    1.7859    0.2000 N.pl3     1 <0>        -0.5043
     15 C11         3.5484    0.8587   -0.1298 C.ar      1 <0>        -0.0380
     16 C12         4.3368   -0.1336    0.4518 C.ar      1 <0>        -0.0583
     17 C13         5.7118   -0.0514    0.3766 C.ar      1 <0>        -0.1460
     18 C14         6.3099    1.0201   -0.2667 C.ar      1 <0>         0.1109
     19 C15         5.5308    2.0114   -0.8417 C.ar      1 <0>        -0.1480
     20 C16         4.1549    1.9354   -0.7760 C.ar      1 <0>        -0.0811
     21 F1          7.6570    1.0990   -0.3333 F         1 <0>        -0.1339
     22 C17         1.8060   -1.7239   -0.5533 C.ar      1 <0>         0.0402
     23 C18         2.7522   -1.9314   -1.5665 C.ar      1 <0>        -0.1525
     24 C19         3.1934   -3.2133   -1.8158 C.ar      1 <0>         0.1019
     25 N4          2.7296   -4.2368   -1.1233 N.ar      1 <0>        -0.4825
     26 C20         1.8348   -4.0871   -0.1646 C.ar      1 <0>         0.1011
     27 C21         1.3420   -2.8403    0.1559 C.ar      1 <0>        -0.1466
     28 H2         -2.0980    5.3525    1.1265 H         1 <0>         0.1405
     29 H3         -0.1017    3.9876    0.7266 H         1 <0>         0.1293
     30 H4         -2.5775    0.5274    0.1706 H         1 <0>         0.1500
     31 H5         -4.5739    1.8895    0.5800 H         1 <0>         0.1423
     32 H6          3.8716   -0.9672    0.9570 H         1 <0>         0.1354
     33 H7          6.3232   -0.8213    0.8239 H         1 <0>         0.1428
     34 H8          6.0015    2.8449   -1.3418 H         1 <0>         0.1419
     35 H9          3.5486    2.7089   -1.2237 H         1 <0>         0.1321
     36 H10         3.1327   -1.0993   -2.1402 H         1 <0>         0.1337
     37 H11         3.9250   -3.3832   -2.5918 H         1 <0>         0.1579
     38 H12         1.4836   -4.9536    0.3760 H         1 <0>         0.1590
     39 H13         0.6100   -2.7254    0.9416 H         1 <0>         0.1385
@<TRIPOS>BOND
     1    1    6 ar
     2    1    2 ar
     3    1   28 1
     4    2    3 ar
     5    2   29 1
     6    3    4 ar
     7    3    9 1
     8    4    5 ar
     9    4   30 1
    10    5    6 ar
    11    5   31 1
    12    6    7 1
    13    7    8 3
    14    9   10 2
    15    9   14 1
    16   10   12 1
    17   11   14 1
    18   12   13 2
    19   12   22 1
    20   13   14 1
    21   13   15 1
    22   15   20 ar
    23   15   16 ar
    24   16   17 ar
    25   16   32 1
    26   17   18 ar
    27   17   33 1
    28   18   19 ar
    29   18   21 1
    30   19   20 ar
    31   19   34 1
    32   20   35 1
    33   22   27 ar
    34   22   23 ar
    35   23   24 ar
    36   23   36 1
    37   24   25 ar
    38   24   37 1
    39   25   26 ar
    40   26   27 ar
    41   26   38 1
    42   27   39 1
@<TRIPOS>MOLECULE
ZINC03815725
   40    43     0     0     0
SMALL
USER_CHARGES

@<TRIPOS>ATOM
      1 C1         -2.1979    4.2973    0.9192 C.ar      1 <0>        -0.0609
      2 C2         -1.0811    3.5337    0.6959 C.ar      1 <0>        -0.0727
      3 C3         -1.2103    2.1683    0.4282 C.ar      1 <0>        -0.0680
      4 C4         -2.4778    1.5818    0.3823 C.ar      1 <0>        -0.0702
      5 C5         -3.5946    2.3437    0.6111 C.ar      1 <0>        -0.0613
      6 C6         -3.4657    3.7097    0.8790 C.ar      1 <0>         0.0414
      7 C7         -4.6323    4.5070    1.1117 C.1       1 <0>         0.2220
      8 N1         -5.5577    5.1395    1.2963 N.1       1 <0>        -0.3598
      9 C8         -0.0069    1.3459    0.1877 C.cat     1 <0>         0.3821
     10 N2         -0.0041    0.0084   -0.0826 N.pl3     1 <0>        -0.5034
     11 H1         -0.8059   -0.5855   -0.1492 H         1 <0>         0.4726
     12 C9          1.3083   -0.3698   -0.2463 C.2       1 <0>         0.1204
     13 C10         2.0703    0.7743   -0.0660 C.2       1 <0>         0.1174
     14 C11         3.5474    0.8620   -0.1462 C.ar      1 <0>        -0.0870
     15 C12         4.3393   -0.1296    0.4318 C.ar      1 <0>        -0.0430
     16 C13         5.7139   -0.0461    0.3503 C.ar      1 <0>        -0.1467
     17 C14         6.3080    1.0260   -0.2958 C.ar      1 <0>         0.1438
     18 C15         5.5254    2.0165   -0.8672 C.ar      1 <0>        -0.1474
     19 C16         4.1499    1.9393   -0.7951 C.ar      1 <0>        -0.0609
     20 F1          7.6547    1.1061   -0.3686 F         1 <0>        -0.1205
     21 C17         1.8060   -1.7239   -0.5533 C.ar      1 <0>        -0.0222
     22 C18         2.7522   -1.9314   -1.5665 C.ar      1 <0>        -0.1294
     23 C19         3.1934   -3.2133   -1.8158 C.ar      1 <0>         0.1172
     24 N3          2.7296   -4.2368   -1.1233 N.ar      1 <0>        -0.4574
     25 C20         1.8348   -4.0871   -0.1646 C.ar      1 <0>         0.1167
     26 C21         1.3420   -2.8403    0.1559 C.ar      1 <0>        -0.1477
     27 H2         -2.0980    5.3525    1.1265 H         1 <0>         0.1579
     28 H3         -0.1017    3.9876    0.7266 H         1 <0>         0.1432
     29 H4         -2.5775    0.5274    0.1706 H         1 <0>         0.1431
     30 H5         -4.5739    1.8895    0.5800 H         1 <0>         0.1576
     31 H6          3.8772   -0.9636    0.9392 H         1 <0>         0.1400
     32 H7          6.3281   -0.8154    0.7948 H         1 <0>         0.1528
     33 H8          5.9930    2.8505   -1.3694 H         1 <0>         0.1529
     34 H9          3.5408    2.7122   -1.2401 H         1 <0>         0.1390
     35 H10         3.1327   -1.0993   -2.1402 H         1 <0>         0.1462
     36 H11         3.9250   -3.3832   -2.5918 H         1 <0>         0.1719
     37 H12         1.4836   -4.9536    0.3760 H         1 <0>         0.1714
     38 H13         0.6100   -2.7254    0.9416 H         1 <0>         0.1428
     39 N4          1.2314    1.7877    0.1944 N.pl3     1 <0>        -0.4734
     40 H14         1.5128    2.7591    0.3717 H         1 <0>         0.4793
@<TRIPOS>BOND
     1    1    6 ar
     2    1    2 ar
     3    1   27 1
     4    2    3 ar
     5    2   28 1
     6    3    4 ar
     7    3    9 1
     8    4    5 ar
     9    4   29 1
    10    5    6 ar
    11    5   30 1
    12    6    7 1
    13    7    8 3
    14    9   10 1
    15    9   39 2
    16   10   11 1
    17   10   12 1
    18   12   13 2
    19   12   21 1
    20   13   14 1
    21   13   39 1
    22   14   19 ar
    23   14   15 ar
    24   15   16 ar
    25   15   31 1
    26   16   17 ar
    27   16   32 1
    28   17   18 ar
    29   17   20 1
    30   18   19 ar
    31   18   33 1
    32   19   34 1
    33   21   26 ar
    34   21   22 ar
    35   22   23 ar
    36   22   35 1
    37   23   24 ar
    38   23   36 1
    39   24   25 ar
    40   25   26 ar
    41   25   37 1
    42   26   38 1
    43   39   40 1
@<TRIPOS>MOLECULE
ZINC03815725
   39    42     0     0     0
SMALL
USER_CHARGES

@<TRIPOS>ATOM
      1 C1         -2.1979    4.2973    0.9192 C.ar      1 <0>        -0.0626
      2 C2         -1.0811    3.5337    0.6959 C.ar      1 <0>        -0.1145
      3 C3         -1.2103    2.1683    0.4282 C.ar      1 <0>         0.0134
      4 C4         -2.4778    1.5818    0.3823 C.ar      1 <0>        -0.0765
      5 C5         -3.5946    2.3437    0.6111 C.ar      1 <0>        -0.0640
      6 C6         -3.4657    3.7097    0.8790 C.ar      1 <0>        -0.0166
      7 C7         -4.6323    4.5070    1.1117 C.1       1 <0>         0.2471
      8 N1         -5.5577    5.1395    1.2963 N.1       1 <0>        -0.4045
      9 C8         -0.0069    1.3459    0.1877 C.2       1 <0>         0.2258
     10 N2         -0.0041    0.0084   -0.0826 N.2       1 <0>        -0.4415
     11 H1          1.5058    2.7318    0.3740 H         1 <0>         0.4305
     12 C9          1.3083   -0.3698   -0.2463 C.2       1 <0>         0.0611
     13 C10         2.0709    0.7724   -0.0564 C.2       1 <0>         0.0361
     14 N3          1.2316    1.7859    0.2000 N.pl3     1 <0>        -0.5043
     15 C11         3.5484    0.8587   -0.1298 C.ar      1 <0>        -0.0380
     16 C12         4.3368   -0.1336    0.4518 C.ar      1 <0>        -0.0583
     17 C13         5.7118   -0.0514    0.3766 C.ar      1 <0>        -0.1460
     18 C14         6.3099    1.0201   -0.2667 C.ar      1 <0>         0.1109
     19 C15         5.5308    2.0114   -0.8417 C.ar      1 <0>        -0.1480
     20 C16         4.1549    1.9354   -0.7760 C.ar      1 <0>        -0.0811
     21 F1          7.6570    1.0990   -0.3333 F         1 <0>        -0.1339
     22 C17         1.8060   -1.7239   -0.5533 C.ar      1 <0>         0.0402
     23 C18         2.7522   -1.9314   -1.5665 C.ar      1 <0>        -0.1525
     24 C19         3.1934   -3.2133   -1.8158 C.ar      1 <0>         0.1019
     25 N4          2.7296   -4.2368   -1.1233 N.ar      1 <0>        -0.4825
     26 C20         1.8348   -4.0871   -0.1646 C.ar      1 <0>         0.1011
     27 C21         1.3420   -2.8403    0.1559 C.ar      1 <0>        -0.1466
     28 H2         -2.0980    5.3525    1.1265 H         1 <0>         0.1405
     29 H3         -0.1017    3.9876    0.7266 H         1 <0>         0.1293
     30 H4         -2.5775    0.5274    0.1706 H         1 <0>         0.1500
     31 H5         -4.5739    1.8895    0.5800 H         1 <0>         0.1423
     32 H6          3.8716   -0.9672    0.9570 H         1 <0>         0.1354
     33 H7          6.3232   -0.8213    0.8239 H         1 <0>         0.1428
     34 H8          6.0015    2.8449   -1.3418 H         1 <0>         0.1419
     35 H9          3.5486    2.7089   -1.2237 H         1 <0>         0.1321
     36 H10         3.1327   -1.0993   -2.1402 H         1 <0>         0.1337
     37 H11         3.9250   -3.3832   -2.5918 H         1 <0>         0.1579
     38 H12         1.4836   -4.9536    0.3760 H         1 <0>         0.1590
     39 H13         0.6100   -2.7254    0.9416 H         1 <0>         0.1385
@<TRIPOS>BOND
     1    1    6 ar
     2    1    2 ar
     3    1   28 1
     4    2    3 ar
     5    2   29 1
     6    3    4 ar
     7    3    9 1
     8    4    5 ar
     9    4   30 1
    10    5    6 ar
    11    5   31 1
    12    6    7 1
    13    7    8 3
    14    9   10 2
    15    9   14 1
    16   10   12 1
    17   11   14 1
    18   12   13 2
    19   12   22 1
    20   13   14 1
    21   13   15 1
    22   15   20 ar
    23   15   16 ar
    24   16   17 ar
    25   16   32 1
    26   17   18 ar
    27   17   33 1
    28   18   19 ar
    29   18   21 1
    30   19   20 ar
    31   19   34 1
    32   20   35 1
    33   22   27 ar
    34   22   23 ar
    35   23   24 ar
    36   23   36 1
    37   24   25 ar
    38   24   37 1
    39   25   26 ar
    40   26   27 ar
    41   26   38 1
    42   27   39 1
@<TRIPOS>MOLECULE
ZINC03815726
   44    46     0     0     0
SMALL
USER_CHARGES

@<TRIPOS>ATOM
      1 C1         -1.4912    2.3920   -7.6283 C.3       1 <0>        -0.1534
      2 C2         -2.3733    1.8385   -6.5073 C.3       1 <0>         0.0578
      3 O1         -2.2520    2.6697   -5.3513 O.3       1 <0>        -0.3881
      4 C3         -3.0402    2.2385   -4.2401 C.3       1 <0>         0.0672
      5 C4         -2.8332    3.1968   -3.0655 C.3       1 <0>        -0.1346
      6 C5         -3.6770    2.7351   -1.8757 C.3       1 <0>         0.1040
      7 N1         -3.5714    3.7156   -0.7923 N.pl3     1 <0>        -0.4442
      8 C6         -4.4407    4.7146   -0.5305 C.2       1 <0>         0.2039
      9 N2         -4.0270    5.3935    0.5033 N.2       1 <0>        -0.4757
     10 C7         -2.8775    4.8637    0.9597 C.2       1 <0>         0.0721
     11 C8         -2.5684    3.7868    0.1481 C.2       1 <0>         0.0160
     12 C9         -1.3965    2.8976    0.2632 C.ar      1 <0>         0.0314
     13 C10        -1.5526    1.5078    0.3520 C.ar      1 <0>        -0.1677
     14 C11        -0.4302    0.7154    0.4628 C.ar      1 <0>         0.1060
     15 N3          0.7774    1.2482    0.4759 N.ar      1 <0>        -0.4797
     16 C12         0.9699    2.5512    0.3896 C.ar      1 <0>         0.1079
     17 C13        -0.0957    3.4187    0.2811 C.ar      1 <0>        -0.1449
     18 C14        -2.0887    5.3444    2.1180 C.ar      1 <0>        -0.0161
     19 C15        -1.4192    4.4336    2.9349 C.ar      1 <0>        -0.0738
     20 C16        -0.6824    4.8865    4.0096 C.ar      1 <0>        -0.1513
     21 C17        -0.6151    6.2430    4.2841 C.ar      1 <0>         0.1022
     22 C18        -1.2825    7.1515    3.4782 C.ar      1 <0>        -0.1527
     23 C19        -2.0179    6.7088    2.3983 C.ar      1 <0>        -0.0615
     24 F1          0.1031    6.6813    5.3411 F         1 <0>        -0.1383
     25 H1         -1.5837    1.7580   -8.5101 H         1 <0>         0.0734
     26 H2         -1.8092    3.4051   -7.8742 H         1 <0>         0.0637
     27 H3         -0.4522    2.4071   -7.2991 H         1 <0>         0.0636
     28 H4         -2.0553    0.8254   -6.2614 H         1 <0>         0.0497
     29 H5         -3.4123    1.8234   -6.8365 H         1 <0>         0.0500
     30 H6         -2.7360    1.2336   -3.9471 H         1 <0>         0.0524
     31 H7         -4.0930    2.2316   -4.5222 H         1 <0>         0.0539
     32 H8         -3.1374    4.2017   -3.3585 H         1 <0>         0.0824
     33 H9         -1.7804    3.2037   -2.7833 H         1 <0>         0.0788
     34 H10        -3.3150    1.7679   -1.5270 H         1 <0>         0.0953
     35 H11        -4.7189    2.6438   -2.1828 H         1 <0>         0.1043
     36 H12        -5.3387    4.9224   -1.0933 H         1 <0>         0.2123
     37 H13        -2.5374    1.0646    0.3378 H         1 <0>         0.1330
     38 H14        -0.5401   -0.3565    0.5355 H         1 <0>         0.1593
     39 H15         1.9762    2.9429    0.4040 H         1 <0>         0.1611
     40 H16         0.0693    4.4838    0.2113 H         1 <0>         0.1382
     41 H17        -1.4744    3.3758    2.7242 H         1 <0>         0.1277
     42 H18        -0.1606    4.1823    4.6406 H         1 <0>         0.1373
     43 H19        -1.2270    8.2078    3.6961 H         1 <0>         0.1390
     44 H20        -2.5382    7.4175    1.7712 H         1 <0>         0.1383
@<TRIPOS>BOND
     1    1    2 1
     2    1   25 1
     3    1   26 1
     4    1   27 1
     5    2    3 1
     6    2   28 1
     7    2   29 1
     8    3    4 1
     9    4    5 1
    10    4   30 1
    11    4   31 1
    12    5    6 1
    13    5   32 1
    14    5   33 1
    15    6    7 1
    16    6   34 1
    17    6   35 1
    18    7   11 1
    19    7    8 1
    20    8    9 2
    21    8   36 1
    22    9   10 1
    23   10   11 2
    24   10   18 1
    25   11   12 1
    26   12   17 ar
    27   12   13 ar
    28   13   14 ar
    29   13   37 1
    30   14   15 ar
    31   14   38 1
    32   15   16 ar
    33   16   17 ar
    34   16   39 1
    35   17   40 1
    36   18   23 ar
    37   18   19 ar
    38   19   20 ar
    39   19   41 1
    40   20   21 ar
    41   20   42 1
    42   21   22 ar
    43   21   24 1
    44   22   23 ar
    45   22   43 1
    46   23   44 1
@<TRIPOS>MOLECULE
ZINC03815726
   45    47     0     0     0
SMALL
USER_CHARGES

@<TRIPOS>ATOM
      1 C1         -1.4912    2.3920   -7.6283 C.3       1 <0>        -0.1553
      2 C2         -2.3733    1.8385   -6.5073 C.3       1 <0>         0.0587
      3 O1         -2.2520    2.6697   -5.3513 O.3       1 <0>        -0.3877
      4 C3         -3.0402    2.2385   -4.2401 C.3       1 <0>         0.0655
      5 C4         -2.8332    3.1968   -3.0655 C.3       1 <0>        -0.1395
      6 C5         -3.6770    2.7351   -1.8757 C.3       1 <0>         0.0912
      7 N1         -3.5714    3.7156   -0.7923 N.pl3     1 <0>        -0.3970
      8 C6         -4.4407    4.7146   -0.5305 C.cat     1 <0>         0.2996
      9 C7         -2.8775    4.8637    0.9597 C.2       1 <0>         0.1108
     10 C8         -2.5684    3.7868    0.1481 C.2       1 <0>         0.1022
     11 C9         -1.3965    2.8976    0.2632 C.ar      1 <0>        -0.0168
     12 C10        -1.5526    1.5078    0.3520 C.ar      1 <0>        -0.1520
     13 C11        -0.4302    0.7154    0.4628 C.ar      1 <0>         0.1169
     14 N2          0.7774    1.2482    0.4759 N.ar      1 <0>        -0.4580
     15 C12         0.9699    2.5512    0.3896 C.ar      1 <0>         0.1181
     16 C13        -0.0957    3.4187    0.2811 C.ar      1 <0>        -0.1314
     17 C14        -2.0887    5.3444    2.1180 C.ar      1 <0>        -0.0816
     18 C15        -1.4192    4.4336    2.9349 C.ar      1 <0>        -0.0460
     19 C16        -0.6824    4.8865    4.0096 C.ar      1 <0>        -0.1462
     20 C17        -0.6151    6.2430    4.2841 C.ar      1 <0>         0.1417
     21 C18        -1.2825    7.1515    3.4782 C.ar      1 <0>        -0.1469
     22 C19        -2.0179    6.7088    2.3983 C.ar      1 <0>        -0.0630
     23 F1          0.1031    6.6813    5.3411 F         1 <0>        -0.1209
     24 H1         -1.5837    1.7580   -8.5101 H         1 <0>         0.0778
     25 H2         -1.8092    3.4051   -7.8742 H         1 <0>         0.0646
     26 H3         -0.4522    2.4071   -7.2991 H         1 <0>         0.0648
     27 H4         -2.0553    0.8254   -6.2614 H         1 <0>         0.0533
     28 H5         -3.4123    1.8234   -6.8365 H         1 <0>         0.0533
     29 H6         -2.7360    1.2336   -3.9471 H         1 <0>         0.0577
     30 H7         -4.0930    2.2316   -4.5222 H         1 <0>         0.0586
     31 H8         -3.1374    4.2017   -3.3585 H         1 <0>         0.0888
     32 H9         -1.7804    3.2037   -2.7833 H         1 <0>         0.0881
     33 H10        -3.3150    1.7679   -1.5270 H         1 <0>         0.1233
     34 H11        -4.7189    2.6438   -2.1828 H         1 <0>         0.1302
     35 H12        -5.3387    4.9224   -1.0933 H         1 <0>         0.2656
     36 H13        -2.5374    1.0646    0.3378 H         1 <0>         0.1410
     37 H14        -0.5401   -0.3565    0.5355 H         1 <0>         0.1705
     38 H15         1.9762    2.9429    0.4040 H         1 <0>         0.1714
     39 H16         0.0693    4.4838    0.2113 H         1 <0>         0.1450
     40 H17        -1.4744    3.3758    2.7242 H         1 <0>         0.1385
     41 H18        -0.1606    4.1823    4.6406 H         1 <0>         0.1520
     42 H19        -1.2270    8.2078    3.6961 H         1 <0>         0.1524
     43 H20        -2.5382    7.4175    1.7712 H         1 <0>         0.1377
     44 N3         -4.0273    5.3940    0.5035 N.pl3     1 <0>        -0.4789
     45 H21        -4.5055    6.2080    0.9073 H         1 <0>         0.4819
@<TRIPOS>BOND
     1    1    2 1
     2    1   24 1
     3    1   25 1
     4    1   26 1
     5    2    3 1
     6    2   27 1
     7    2   28 1
     8    3    4 1
     9    4    5 1
    10    4   29 1
    11    4   30 1
    12    5    6 1
    13    5   31 1
    14    5   32 1
    15    6    7 1
    16    6   33 1
    17    6   34 1
    18    7   10 1
    19    7    8 1
    20    8   35 1
    21    8   44 2
    22    9   10 2
    23    9   17 1
    24    9   44 1
    25   10   11 1
    26   11   16 ar
    27   11   12 ar
    28   12   13 ar
    29   12   36 1
    30   13   14 ar
    31   13   37 1
    32   14   15 ar
    33   15   16 ar
    34   15   38 1
    35   16   39 1
    36   17   22 ar
    37   17   18 ar
    38   18   19 ar
    39   18   40 1
    40   19   20 ar
    41   19   41 1
    42   20   21 ar
    43   20   23 1
    44   21   22 ar
    45   21   42 1
    46   22   43 1
    47   44   45 1
@<TRIPOS>MOLECULE
ZINC03815727
   45    48     0     0     0
SMALL
USER_CHARGES

@<TRIPOS>ATOM
      1 C1          0.0272    2.5383    2.1801 C.ar      1 <0>        -0.0957
      2 C2         -0.7611    3.0790    3.1749 C.ar      1 <0>        -0.0748
      3 C3         -1.7438    2.2974    3.7845 C.ar      1 <0>        -0.0096
      4 C4         -1.9259    0.9745    3.3787 C.ar      1 <0>        -0.1131
      5 C5         -1.1347    0.4477    2.3788 C.ar      1 <0>        -0.0942
      6 C6         -0.1623    1.2278    1.7786 C.ar      1 <0>        -0.0983
      7 C7          0.6983    0.6458    0.6871 C.3       1 <0>         0.1523
      8 N1          0.0600    0.8733   -0.6118 N.am      1 <0>        -0.7351
      9 C8          0.6531    0.4357   -1.7401 C.2       1 <0>         0.4908
     10 O1          1.7154   -0.1464   -1.6802 O.2       1 <0>        -0.5526
     11 C9         -2.5878    2.8683    4.8557 C.2       1 <0>         0.2345
     12 N2         -2.5028    4.1427    5.3345 N.2       1 <0>        -0.4471
     13 H1         -3.8090    1.2802    5.3332 H         1 <0>         0.4292
     14 C10        -3.4573    4.2715    6.3183 C.2       1 <0>         0.0601
     15 C11        -4.0929    3.0438    6.4087 C.2       1 <0>         0.0310
     16 N3         -3.5391    2.2289    5.4980 N.pl3     1 <0>        -0.5069
     17 C12        -5.1951    2.6967    7.3363 C.ar      1 <0>        -0.0358
     18 C13        -5.1474    3.1132    8.6664 C.ar      1 <0>        -0.0592
     19 C14        -6.1780    2.7913    9.5250 C.ar      1 <0>        -0.1455
     20 C15        -7.2548    2.0473    9.0702 C.ar      1 <0>         0.1099
     21 C16        -7.3042    1.6266    7.7509 C.ar      1 <0>        -0.1477
     22 C17        -6.2807    1.9476    6.8834 C.ar      1 <0>        -0.0822
     23 F1         -8.2595    1.7304    9.9161 F         1 <0>        -0.1341
     24 C18        -3.7405    5.4747    7.1228 C.ar      1 <0>         0.0412
     25 C19        -5.0543    5.9304    7.3001 C.ar      1 <0>        -0.1529
     26 C20        -5.2731    7.0562    8.0646 C.ar      1 <0>         0.1018
     27 N4         -4.2662    7.7078    8.6160 N.ar      1 <0>        -0.4827
     28 C21        -3.0139    7.3168    8.4702 C.ar      1 <0>         0.1011
     29 C22        -2.7031    6.1984    7.7271 C.ar      1 <0>        -0.1470
     30 H2          0.7909    3.1405    1.7107 H         1 <0>         0.1332
     31 H3         -0.6151    4.1033    3.4843 H         1 <0>         0.1411
     32 H4         -2.6844    0.3644    3.8466 H         1 <0>         0.1204
     33 H5         -1.2744   -0.5759    2.0641 H         1 <0>         0.1314
     34 H6          0.8176   -0.4253    0.8506 H         1 <0>         0.0784
     35 H7          1.6765    1.1265    0.7003 H         1 <0>         0.0794
     36 H8         -0.7896    1.3390   -0.6597 H         1 <0>         0.4040
     37 H9          0.1826    0.6035   -2.6976 H         1 <0>         0.1359
     38 H10        -4.3066    3.6898    9.0228 H         1 <0>         0.1351
     39 H11        -6.1436    3.1163   10.5544 H         1 <0>         0.1428
     40 H12        -8.1452    1.0462    7.4012 H         1 <0>         0.1416
     41 H13        -6.3199    1.6191    5.8554 H         1 <0>         0.1313
     42 H14        -5.8826    5.4049    6.8482 H         1 <0>         0.1334
     43 H15        -6.2820    7.4130    8.2105 H         1 <0>         0.1579
     44 H16        -2.2218    7.8814    8.9395 H         1 <0>         0.1590
     45 H17        -1.6762    5.8841    7.6124 H         1 <0>         0.1380
@<TRIPOS>BOND
     1    1    6 ar
     2    1    2 ar
     3    1   30 1
     4    2    3 ar
     5    2   31 1
     6    3    4 ar
     7    3   11 1
     8    4    5 ar
     9    4   32 1
    10    5    6 ar
    11    5   33 1
    12    6    7 1
    13    7    8 1
    14    7   34 1
    15    7   35 1
    16    8    9 am
    17    8   36 1
    18    9   10 2
    19    9   37 1
    20   11   12 2
    21   11   16 1
    22   12   14 1
    23   13   16 1
    24   14   15 2
    25   14   24 1
    26   15   16 1
    27   15   17 1
    28   17   22 ar
    29   17   18 ar
    30   18   19 ar
    31   18   38 1
    32   19   20 ar
    33   19   39 1
    34   20   21 ar
    35   20   23 1
    36   21   22 ar
    37   21   40 1
    38   22   41 1
    39   24   29 ar
    40   24   25 ar
    41   25   26 ar
    42   25   42 1
    43   26   27 ar
    44   26   43 1
    45   27   28 ar
    46   28   29 ar
    47   28   44 1
    48   29   45 1
@<TRIPOS>MOLECULE
ZINC03815727
   46    49     0     0     0
SMALL
USER_CHARGES

@<TRIPOS>ATOM
      1 C1          0.0272    2.5383    2.1801 C.ar      1 <0>        -0.0893
      2 C2         -0.7611    3.0790    3.1749 C.ar      1 <0>        -0.0711
      3 C3         -1.7438    2.2974    3.7845 C.ar      1 <0>        -0.0866
      4 C4         -1.9259    0.9745    3.3787 C.ar      1 <0>        -0.0737
      5 C5         -1.1347    0.4477    2.3788 C.ar      1 <0>        -0.0888
      6 C6         -0.1623    1.2278    1.7786 C.ar      1 <0>        -0.0510
      7 C7          0.6983    0.6458    0.6871 C.3       1 <0>         0.1411
      8 N1          0.0600    0.8733   -0.6118 N.am      1 <0>        -0.7402
      9 C8          0.6531    0.4357   -1.7401 C.2       1 <0>         0.4931
     10 O1          1.7154   -0.1464   -1.6802 O.2       1 <0>        -0.5419
     11 C9         -2.5878    2.8683    4.8557 C.cat     1 <0>         0.3899
     12 N2         -2.5028    4.1427    5.3345 N.pl3     1 <0>        -0.5071
     13 H1         -1.8665    4.8507    5.0283 H         1 <0>         0.4716
     14 C10        -3.4573    4.2715    6.3183 C.2       1 <0>         0.1175
     15 C11        -4.0992    3.0466    6.4023 C.2       1 <0>         0.1149
     16 C12        -5.2059    2.7016    7.3253 C.ar      1 <0>        -0.0855
     17 C13        -5.1631    3.1184    8.6554 C.ar      1 <0>        -0.0436
     18 C14        -6.1979    2.7984    9.5098 C.ar      1 <0>        -0.1463
     19 C15        -7.2739    2.0559    9.0506 C.ar      1 <0>         0.1431
     20 C16        -7.3184    1.6349    7.7312 C.ar      1 <0>        -0.1472
     21 C17        -6.2907    1.9541    6.8680 C.ar      1 <0>        -0.0617
     22 F1         -8.2827    1.7409    9.8923 F         1 <0>        -0.1206
     23 C18        -3.7405    5.4747    7.1228 C.ar      1 <0>        -0.0210
     24 C19        -5.0543    5.9304    7.3001 C.ar      1 <0>        -0.1299
     25 C20        -5.2731    7.0562    8.0646 C.ar      1 <0>         0.1171
     26 N3         -4.2662    7.7078    8.6160 N.ar      1 <0>        -0.4576
     27 C21        -3.0139    7.3168    8.4702 C.ar      1 <0>         0.1167
     28 C22        -2.7031    6.1984    7.7271 C.ar      1 <0>        -0.1482
     29 H2          0.7909    3.1405    1.7107 H         1 <0>         0.1492
     30 H3         -0.6151    4.1033    3.4843 H         1 <0>         0.1348
     31 H4         -2.6844    0.3644    3.8466 H         1 <0>         0.1349
     32 H5         -1.2744   -0.5759    2.0641 H         1 <0>         0.1495
     33 H6          0.8176   -0.4253    0.8506 H         1 <0>         0.0875
     34 H7          1.6765    1.1265    0.7003 H         1 <0>         0.0874
     35 H8         -0.7896    1.3390   -0.6597 H         1 <0>         0.4037
     36 H9          0.1826    0.6035   -2.6976 H         1 <0>         0.1430
     37 H10        -4.3229    3.6937    9.0152 H         1 <0>         0.1397
     38 H11        -6.1673    3.1236   10.5392 H         1 <0>         0.1528
     39 H12        -8.1588    1.0558    7.3781 H         1 <0>         0.1527
     40 H13        -6.3261    1.6253    5.8399 H         1 <0>         0.1382
     41 H14        -5.8826    5.4049    6.8482 H         1 <0>         0.1459
     42 H15        -6.2820    7.4130    8.2105 H         1 <0>         0.1719
     43 H16        -2.2218    7.8814    8.9395 H         1 <0>         0.1714
     44 H17        -1.6762    5.8841    7.6124 H         1 <0>         0.1423
     45 N4         -3.5430    2.2299    5.4940 N.pl3     1 <0>        -0.4771
     46 H18        -3.8209    1.2563    5.3239 H         1 <0>         0.4782
@<TRIPOS>BOND
     1    1    6 ar
     2    1    2 ar
     3    1   29 1
     4    2    3 ar
     5    2   30 1
     6    3    4 ar
     7    3   11 1
     8    4    5 ar
     9    4   31 1
    10    5    6 ar
    11    5   32 1
    12    6    7 1
    13    7    8 1
    14    7   33 1
    15    7   34 1
    16    8    9 am
    17    8   35 1
    18    9   10 2
    19    9   36 1
    20   11   12 1
    21   11   45 2
    22   12   13 1
    23   12   14 1
    24   14   15 2
    25   14   23 1
    26   15   16 1
    27   15   45 1
    28   16   21 ar
    29   16   17 ar
    30   17   18 ar
    31   17   37 1
    32   18   19 ar
    33   18   38 1
    34   19   20 ar
    35   19   22 1
    36   20   21 ar
    37   20   39 1
    38   21   40 1
    39   23   28 ar
    40   23   24 ar
    41   24   25 ar
    42   24   41 1
    43   25   26 ar
    44   25   42 1
    45   26   27 ar
    46   27   28 ar
    47   27   43 1
    48   28   44 1
    49   45   46 1
@<TRIPOS>MOLECULE
ZINC03815727
   45    48     0     0     0
SMALL
USER_CHARGES

@<TRIPOS>ATOM
      1 C1          0.0272    2.5383    2.1801 C.ar      1 <0>        -0.0957
      2 C2         -0.7611    3.0790    3.1749 C.ar      1 <0>        -0.0748
      3 C3         -1.7438    2.2974    3.7845 C.ar      1 <0>        -0.0096
      4 C4         -1.9259    0.9745    3.3787 C.ar      1 <0>        -0.1131
      5 C5         -1.1347    0.4477    2.3788 C.ar      1 <0>        -0.0942
      6 C6         -0.1623    1.2278    1.7786 C.ar      1 <0>        -0.0983
      7 C7          0.6983    0.6458    0.6871 C.3       1 <0>         0.1523
      8 N1          0.0600    0.8733   -0.6118 N.am      1 <0>        -0.7351
      9 C8          0.6531    0.4357   -1.7401 C.2       1 <0>         0.4908
     10 O1          1.7154   -0.1464   -1.6802 O.2       1 <0>        -0.5526
     11 C9         -2.5878    2.8683    4.8557 C.2       1 <0>         0.2345
     12 N2         -2.5028    4.1427    5.3345 N.2       1 <0>        -0.4471
     13 H1         -3.8090    1.2802    5.3332 H         1 <0>         0.4292
     14 C10        -3.4573    4.2715    6.3183 C.2       1 <0>         0.0601
     15 C11        -4.0929    3.0438    6.4087 C.2       1 <0>         0.0310
     16 N3         -3.5391    2.2289    5.4980 N.pl3     1 <0>        -0.5069
     17 C12        -5.1951    2.6967    7.3363 C.ar      1 <0>        -0.0358
     18 C13        -5.1474    3.1132    8.6664 C.ar      1 <0>        -0.0592
     19 C14        -6.1780    2.7913    9.5250 C.ar      1 <0>        -0.1455
     20 C15        -7.2548    2.0473    9.0702 C.ar      1 <0>         0.1099
     21 C16        -7.3042    1.6266    7.7509 C.ar      1 <0>        -0.1477
     22 C17        -6.2807    1.9476    6.8834 C.ar      1 <0>        -0.0822
     23 F1         -8.2595    1.7304    9.9161 F         1 <0>        -0.1341
     24 C18        -3.7405    5.4747    7.1228 C.ar      1 <0>         0.0412
     25 C19        -5.0543    5.9304    7.3001 C.ar      1 <0>        -0.1529
     26 C20        -5.2731    7.0562    8.0646 C.ar      1 <0>         0.1018
     27 N4         -4.2662    7.7078    8.6160 N.ar      1 <0>        -0.4827
     28 C21        -3.0139    7.3168    8.4702 C.ar      1 <0>         0.1011
     29 C22        -2.7031    6.1984    7.7271 C.ar      1 <0>        -0.1470
     30 H2          0.7909    3.1405    1.7107 H         1 <0>         0.1332
     31 H3         -0.6151    4.1033    3.4843 H         1 <0>         0.1411
     32 H4         -2.6844    0.3644    3.8466 H         1 <0>         0.1204
     33 H5         -1.2744   -0.5759    2.0641 H         1 <0>         0.1314
     34 H6          0.8176   -0.4253    0.8506 H         1 <0>         0.0784
     35 H7          1.6765    1.1265    0.7003 H         1 <0>         0.0794
     36 H8         -0.7896    1.3390   -0.6597 H         1 <0>         0.4040
     37 H9          0.1826    0.6035   -2.6976 H         1 <0>         0.1359
     38 H10        -4.3066    3.6898    9.0228 H         1 <0>         0.1351
     39 H11        -6.1436    3.1163   10.5544 H         1 <0>         0.1428
     40 H12        -8.1452    1.0462    7.4012 H         1 <0>         0.1416
     41 H13        -6.3199    1.6191    5.8554 H         1 <0>         0.1313
     42 H14        -5.8826    5.4049    6.8482 H         1 <0>         0.1334
     43 H15        -6.2820    7.4130    8.2105 H         1 <0>         0.1579
     44 H16        -2.2218    7.8814    8.9395 H         1 <0>         0.1590
     45 H17        -1.6762    5.8841    7.6124 H         1 <0>         0.1380
@<TRIPOS>BOND
     1    1    6 ar
     2    1    2 ar
     3    1   30 1
     4    2    3 ar
     5    2   31 1
     6    3    4 ar
     7    3   11 1
     8    4    5 ar
     9    4   32 1
    10    5    6 ar
    11    5   33 1
    12    6    7 1
    13    7    8 1
    14    7   34 1
    15    7   35 1
    16    8    9 am
    17    8   36 1
    18    9   10 2
    19    9   37 1
    20   11   12 2
    21   11   16 1
    22   12   14 1
    23   13   16 1
    24   14   15 2
    25   14   24 1
    26   15   16 1
    27   15   17 1
    28   17   22 ar
    29   17   18 ar
    30   18   19 ar
    31   18   38 1
    32   19   20 ar
    33   19   39 1
    34   20   21 ar
    35   20   23 1
    36   21   22 ar
    37   21   40 1
    38   22   41 1
    39   24   29 ar
    40   24   25 ar
    41   25   26 ar
    42   25   42 1
    43   26   27 ar
    44   26   43 1
    45   27   28 ar
    46   28   29 ar
    47   28   44 1
    48   29   45 1
@<TRIPOS>MOLECULE
ZINC03815729
   42    45     0     0     0
SMALL
USER_CHARGES

@<TRIPOS>ATOM
      1 C1         11.0642    0.0667   -0.3407 C.3       1 <0>        -0.1476
      2 S1          9.5797   -0.0091    0.6992 S.3       1 <0>        -0.0995
      3 C2          8.2546    0.2674   -0.4288 C.ar      1 <0>        -0.0677
      4 C3          8.5204    0.4751   -1.7777 C.ar      1 <0>        -0.1244
      5 C4          7.4819    0.6914   -2.6619 C.ar      1 <0>        -0.0778
      6 C5          6.1756    0.6965   -2.2106 C.ar      1 <0>        -0.1118
      7 C6          5.9034    0.4954   -0.8635 C.ar      1 <0>         0.1328
      8 C7          6.9436    0.2778    0.0280 C.ar      1 <0>        -0.0955
      9 N1          4.5788    0.5066   -0.4064 N.pl3     1 <0>        -0.4042
     10 C8          3.9873   -0.4353    0.3724 C.2       1 <0>         0.2137
     11 N2          2.7488   -0.0953    0.5993 N.2       1 <0>        -0.4675
     12 C9          2.4798    1.0712   -0.0149 C.2       1 <0>         0.0774
     13 C10         3.6313    1.4733   -0.6682 C.2       1 <0>         0.0232
     14 C11         3.8101    2.6926   -1.4791 C.ar      1 <0>         0.0273
     15 C12         4.9474    3.4977   -1.3286 C.ar      1 <0>        -0.1575
     16 C13         5.0756    4.6252   -2.1110 C.ar      1 <0>         0.1061
     17 N3          4.1416    4.9551   -2.9834 N.ar      1 <0>        -0.4784
     18 C14         3.0529    4.2284   -3.1536 C.ar      1 <0>         0.1056
     19 C15         2.8446    3.0818   -2.4176 C.ar      1 <0>        -0.1464
     20 C16         1.1850    1.7907    0.0004 C.ar      1 <0>        -0.0197
     21 C17        -0.0126    1.0758    0.0080 C.ar      1 <0>        -0.0597
     22 C18        -1.2158    1.7504    0.0173 C.ar      1 <0>        -0.1530
     23 C19        -1.2359    3.1359    0.0293 C.ar      1 <0>         0.1046
     24 C20        -0.0488    3.8506    0.0222 C.ar      1 <0>        -0.1514
     25 C21         1.1595    3.1852    0.0076 C.ar      1 <0>        -0.0723
     26 F1         -2.4167    3.7920    0.0427 F         1 <0>        -0.1375
     27 H1         11.0101   -0.7056   -1.1080 H         1 <0>         0.0872
     28 H2         11.1261    1.0462   -0.8148 H         1 <0>         0.0872
     29 H3         11.9483   -0.0950    0.2759 H         1 <0>         0.1142
     30 H4          9.5398    0.4669   -2.1342 H         1 <0>         0.1332
     31 H5          7.6906    0.8521   -3.7093 H         1 <0>         0.1385
     32 H6          5.3655    0.8611   -2.9056 H         1 <0>         0.1304
     33 H7          6.7340    0.1164    1.0751 H         1 <0>         0.1389
     34 H8          4.4678   -1.3274    0.7460 H         1 <0>         0.2158
     35 H9          5.7132    3.2366   -0.6133 H         1 <0>         0.1306
     36 H10         5.9501    5.2501   -2.0052 H         1 <0>         0.1586
     37 H11         2.3149    4.5368   -3.8793 H         1 <0>         0.1614
     38 H12         1.9515    2.4921   -2.5622 H         1 <0>         0.1393
     39 H13         0.0021   -0.0041    0.0020 H         1 <0>         0.1390
     40 H14        -2.1437    1.1977    0.0187 H         1 <0>         0.1397
     41 H15        -0.0696    4.9304    0.0279 H         1 <0>         0.1383
     42 H16         2.0842    3.7431    0.0014 H         1 <0>         0.1290
@<TRIPOS>BOND
     1    1    2 1
     2    1   27 1
     3    1   28 1
     4    1   29 1
     5    2    3 1
     6    3    8 ar
     7    3    4 ar
     8    4    5 ar
     9    4   30 1
    10    5    6 ar
    11    5   31 1
    12    6    7 ar
    13    6   32 1
    14    7    8 ar
    15    7    9 1
    16    8   33 1
    17    9   13 1
    18    9   10 1
    19   10   11 2
    20   10   34 1
    21   11   12 1
    22   12   13 2
    23   12   20 1
    24   13   14 1
    25   14   19 ar
    26   14   15 ar
    27   15   16 ar
    28   15   35 1
    29   16   17 ar
    30   16   36 1
    31   17   18 ar
    32   18   19 ar
    33   18   37 1
    34   19   38 1
    35   20   25 ar
    36   20   21 ar
    37   21   22 ar
    38   21   39 1
    39   22   23 ar
    40   22   40 1
    41   23   24 ar
    42   23   26 1
    43   24   25 ar
    44   24   41 1
    45   25   42 1
@<TRIPOS>MOLECULE
ZINC03815729
   43    46     0     0     0
SMALL
USER_CHARGES

@<TRIPOS>ATOM
      1 C1         11.0642    0.0667   -0.3407 C.3       1 <0>        -0.1521
      2 S1          9.5797   -0.0091    0.6992 S.3       1 <0>        -0.0791
      3 C2          8.2546    0.2674   -0.4288 C.ar      1 <0>        -0.0675
      4 C3          8.5204    0.4751   -1.7777 C.ar      1 <0>        -0.0994
      5 C4          7.4819    0.6914   -2.6619 C.ar      1 <0>        -0.0712
      6 C5          6.1756    0.6965   -2.2106 C.ar      1 <0>        -0.0947
      7 C6          5.9034    0.4954   -0.8635 C.ar      1 <0>         0.0835
      8 C7          6.9436    0.2778    0.0280 C.ar      1 <0>        -0.0833
      9 N1          4.5788    0.5066   -0.4064 N.pl3     1 <0>        -0.3451
     10 C8          3.9873   -0.4353    0.3724 C.cat     1 <0>         0.3024
     11 C9          2.4798    1.0712   -0.0149 C.2       1 <0>         0.1101
     12 C10         3.6313    1.4733   -0.6682 C.2       1 <0>         0.1084
     13 C11         3.8101    2.6926   -1.4791 C.ar      1 <0>        -0.0184
     14 C12         4.9474    3.4977   -1.3286 C.ar      1 <0>        -0.1397
     15 C13         5.0756    4.6252   -2.1110 C.ar      1 <0>         0.1158
     16 N2          4.1416    4.9551   -2.9834 N.ar      1 <0>        -0.4566
     17 C14         3.0529    4.2284   -3.1536 C.ar      1 <0>         0.1148
     18 C15         2.8446    3.0818   -2.4176 C.ar      1 <0>        -0.1336
     19 C16         1.1850    1.7907    0.0004 C.ar      1 <0>        -0.0824
     20 C17        -0.0126    1.0758    0.0080 C.ar      1 <0>        -0.0621
     21 C18        -1.2158    1.7504    0.0173 C.ar      1 <0>        -0.1470
     22 C19        -1.2359    3.1359    0.0293 C.ar      1 <0>         0.1426
     23 C20        -0.0488    3.8506    0.0222 C.ar      1 <0>        -0.1460
     24 C21         1.1595    3.1852    0.0076 C.ar      1 <0>        -0.0461
     25 F1         -2.4167    3.7920    0.0427 F         1 <0>        -0.1207
     26 H1         11.0101   -0.7056   -1.1080 H         1 <0>         0.0918
     27 H2         11.1261    1.0462   -0.8148 H         1 <0>         0.0919
     28 H3         11.9483   -0.0950    0.2759 H         1 <0>         0.1213
     29 H4          9.5398    0.4669   -2.1342 H         1 <0>         0.1439
     30 H5          7.6906    0.8521   -3.7093 H         1 <0>         0.1504
     31 H6          5.3655    0.8611   -2.9056 H         1 <0>         0.1383
     32 H7          6.7340    0.1164    1.0751 H         1 <0>         0.1450
     33 H8          4.4678   -1.3274    0.7460 H         1 <0>         0.2669
     34 H9          5.7132    3.2366   -0.6133 H         1 <0>         0.1388
     35 H10         5.9501    5.2501   -2.0052 H         1 <0>         0.1694
     36 H11         2.3149    4.5368   -3.8793 H         1 <0>         0.1715
     37 H12         1.9515    2.4921   -2.5622 H         1 <0>         0.1457
     38 H13         0.0021   -0.0041    0.0020 H         1 <0>         0.1382
     39 H14        -2.1437    1.1977    0.0187 H         1 <0>         0.1527
     40 H15        -0.0696    4.9304    0.0279 H         1 <0>         0.1526
     41 H16         2.0842    3.7431    0.0014 H         1 <0>         0.1395
     42 N3          2.7480   -0.0959    0.6000 N.pl3     1 <0>        -0.4741
     43 H17         2.0799   -0.6363    1.1619 H         1 <0>         0.4837
@<TRIPOS>BOND
     1    1    2 1
     2    1   26 1
     3    1   27 1
     4    1   28 1
     5    2    3 1
     6    3    8 ar
     7    3    4 ar
     8    4    5 ar
     9    4   29 1
    10    5    6 ar
    11    5   30 1
    12    6    7 ar
    13    6   31 1
    14    7    8 ar
    15    7    9 1
    16    8   32 1
    17    9   12 1
    18    9   10 1
    19   10   33 1
    20   10   42 2
    21   11   12 2
    22   11   19 1
    23   11   42 1
    24   12   13 1
    25   13   18 ar
    26   13   14 ar
    27   14   15 ar
    28   14   34 1
    29   15   16 ar
    30   15   35 1
    31   16   17 ar
    32   17   18 ar
    33   17   36 1
    34   18   37 1
    35   19   24 ar
    36   19   20 ar
    37   20   21 ar
    38   20   38 1
    39   21   22 ar
    40   21   39 1
    41   22   23 ar
    42   22   25 1
    43   23   24 ar
    44   23   40 1
    45   24   41 1
    46   42   43 1
@<TRIPOS>MOLECULE
ZINC03815730
   37    39     0     0     0
SMALL
USER_CHARGES

@<TRIPOS>ATOM
      1 C1         -4.9258    1.6868   -1.3385 C.3       1 <0>        -0.1651
      2 C2         -3.7583    2.5953   -1.7289 C.3       1 <0>         0.1192
      3 C3         -4.0350    3.2217   -3.0971 C.3       1 <0>        -0.1641
      4 N1         -3.6081    3.6547   -0.7282 N.pl3     1 <0>        -0.4390
      5 C4         -4.5370    4.5750   -0.3925 C.2       1 <0>         0.2045
      6 N2         -4.0573    5.3634    0.5290 N.2       1 <0>        -0.4766
      7 C5         -2.8020    4.9877    0.8347 C.2       1 <0>         0.0713
      8 C6         -2.4945    3.8942    0.0449 C.2       1 <0>         0.0139
      9 C7         -1.2261    3.1404    0.0297 C.ar      1 <0>         0.0321
     10 C8         -1.2209    1.7391    0.0173 C.ar      1 <0>        -0.1717
     11 C9         -0.0126    1.0758    0.0080 C.ar      1 <0>         0.1068
     12 N3          1.1268    1.7422    0.0007 N.ar      1 <0>        -0.4811
     13 C10         1.1675    3.0615    0.0069 C.ar      1 <0>         0.1077
     14 C11         0.0073    3.8057    0.0215 C.ar      1 <0>        -0.1470
     15 C12        -1.9134    5.6267    1.8331 C.ar      1 <0>        -0.0164
     16 C13        -1.0354    4.8489    2.5876 C.ar      1 <0>        -0.0743
     17 C14        -0.2068    5.4490    3.5129 C.ar      1 <0>        -0.1514
     18 C15        -0.2531    6.8211    3.7006 C.ar      1 <0>         0.1022
     19 C16        -1.1271    7.5976    2.9568 C.ar      1 <0>        -0.1528
     20 C17        -1.9562    7.0073    2.0257 C.ar      1 <0>        -0.0617
     21 F1          0.5563    7.4037    4.6120 F         1 <0>        -0.1383
     22 H1         -5.0376    0.8986   -2.0830 H         1 <0>         0.0828
     23 H2         -4.7288    1.2406   -0.3637 H         1 <0>         0.0656
     24 H3         -5.8429    2.2740   -1.2906 H         1 <0>         0.0692
     25 H4         -2.8413    2.0081   -1.7768 H         1 <0>         0.1037
     26 H5         -3.2032    3.8689   -3.3753 H         1 <0>         0.0652
     27 H6         -4.1467    2.4334   -3.8417 H         1 <0>         0.0821
     28 H7         -4.9520    3.8089   -3.0492 H         1 <0>         0.0686
     29 H8         -5.5243    4.6495   -0.8238 H         1 <0>         0.2088
     30 H9         -2.1492    1.1873    0.0191 H         1 <0>         0.1329
     31 H10         0.0021   -0.0041    0.0020 H         1 <0>         0.1596
     32 H11         2.1230    3.5649    0.0002 H         1 <0>         0.1614
     33 H12         0.0482    4.8849    0.0269 H         1 <0>         0.1391
     34 H13        -1.0016    3.7788    2.4450 H         1 <0>         0.1282
     35 H14         0.4760    4.8480    4.0950 H         1 <0>         0.1376
     36 H15        -1.1595    8.6667    3.1067 H         1 <0>         0.1389
     37 H16        -2.6376    7.6133    1.4469 H         1 <0>         0.1382
@<TRIPOS>BOND
     1    1    2 1
     2    1   22 1
     3    1   23 1
     4    1   24 1
     5    2    3 1
     6    2    4 1
     7    2   25 1
     8    3   26 1
     9    3   27 1
    10    3   28 1
    11    4    8 1
    12    4    5 1
    13    5    6 2
    14    5   29 1
    15    6    7 1
    16    7    8 2
    17    7   15 1
    18    8    9 1
    19    9   14 ar
    20    9   10 ar
    21   10   11 ar
    22   10   30 1
    23   11   12 ar
    24   11   31 1
    25   12   13 ar
    26   13   14 ar
    27   13   32 1
    28   14   33 1
    29   15   20 ar
    30   15   16 ar
    31   16   17 ar
    32   16   34 1
    33   17   18 ar
    34   17   35 1
    35   18   19 ar
    36   18   21 1
    37   19   20 ar
    38   19   36 1
    39   20   37 1
@<TRIPOS>MOLECULE
ZINC03815730
   38    40     0     0     0
SMALL
USER_CHARGES

@<TRIPOS>ATOM
      1 C1         -4.9258    1.6868   -1.3385 C.3       1 <0>        -0.1748
      2 C2         -3.7583    2.5953   -1.7289 C.3       1 <0>         0.1109
      3 C3         -4.0350    3.2217   -3.0971 C.3       1 <0>        -0.1734
      4 N1         -3.6081    3.6547   -0.7282 N.pl3     1 <0>        -0.3922
      5 C4         -4.5370    4.5750   -0.3925 C.cat     1 <0>         0.2947
      6 C5         -2.8020    4.9877    0.8347 C.2       1 <0>         0.1084
      7 C6         -2.4945    3.8942    0.0449 C.2       1 <0>         0.1020
      8 C7         -1.2261    3.1404    0.0297 C.ar      1 <0>        -0.0150
      9 C8         -1.2209    1.7391    0.0173 C.ar      1 <0>        -0.1550
     10 C9         -0.0126    1.0758    0.0080 C.ar      1 <0>         0.1179
     11 N2          1.1268    1.7422    0.0007 N.ar      1 <0>        -0.4586
     12 C10         1.1675    3.0615    0.0069 C.ar      1 <0>         0.1181
     13 C11         0.0073    3.8057    0.0215 C.ar      1 <0>        -0.1338
     14 C12        -1.9134    5.6267    1.8331 C.ar      1 <0>        -0.0819
     15 C13        -1.0354    4.8489    2.5876 C.ar      1 <0>        -0.0473
     16 C14        -0.2068    5.4490    3.5129 C.ar      1 <0>        -0.1462
     17 C15        -0.2531    6.8211    3.7006 C.ar      1 <0>         0.1416
     18 C16        -1.1271    7.5976    2.9568 C.ar      1 <0>        -0.1470
     19 C17        -1.9562    7.0073    2.0257 C.ar      1 <0>        -0.0630
     20 F1          0.5563    7.4037    4.6120 F         1 <0>        -0.1209
     21 H1         -5.0376    0.8986   -2.0830 H         1 <0>         0.1043
     22 H2         -4.7288    1.2406   -0.3637 H         1 <0>         0.0754
     23 H3         -5.8429    2.2740   -1.2906 H         1 <0>         0.0762
     24 H4         -2.8413    2.0081   -1.7768 H         1 <0>         0.1300
     25 H5         -3.2032    3.8689   -3.3753 H         1 <0>         0.0750
     26 H6         -4.1467    2.4334   -3.8417 H         1 <0>         0.1035
     27 H7         -4.9520    3.8089   -3.0492 H         1 <0>         0.0754
     28 H8         -5.5243    4.6495   -0.8238 H         1 <0>         0.2616
     29 H9         -2.1492    1.1873    0.0191 H         1 <0>         0.1409
     30 H10         0.0021   -0.0041    0.0020 H         1 <0>         0.1711
     31 H11         2.1230    3.5649    0.0002 H         1 <0>         0.1719
     32 H12         0.0482    4.8849    0.0269 H         1 <0>         0.1457
     33 H13        -1.0016    3.7788    2.4450 H         1 <0>         0.1390
     34 H14         0.4760    4.8480    4.0950 H         1 <0>         0.1523
     35 H15        -1.1595    8.6667    3.1067 H         1 <0>         0.1524
     36 H16        -2.6376    7.6133    1.4469 H         1 <0>         0.1376
     37 N3         -4.0576    5.3639    0.5292 N.pl3     1 <0>        -0.4781
     38 H17        -4.5607    6.1506    0.9560 H         1 <0>         0.4810
@<TRIPOS>BOND
     1    1    2 1
     2    1   21 1
     3    1   22 1
     4    1   23 1
     5    2    3 1
     6    2    4 1
     7    2   24 1
     8    3   25 1
     9    3   26 1
    10    3   27 1
    11    4    7 1
    12    4    5 1
    13    5   28 1
    14    5   37 2
    15    6    7 2
    16    6   14 1
    17    6   37 1
    18    7    8 1
    19    8   13 ar
    20    8    9 ar
    21    9   10 ar
    22    9   29 1
    23   10   11 ar
    24   10   30 1
    25   11   12 ar
    26   12   13 ar
    27   12   31 1
    28   13   32 1
    29   14   19 ar
    30   14   15 ar
    31   15   16 ar
    32   15   33 1
    33   16   17 ar
    34   16   34 1
    35   17   18 ar
    36   17   20 1
    37   18   19 ar
    38   18   35 1
    39   19   36 1
    40   37   38 1
@<TRIPOS>MOLECULE
ZINC03815731
   45    48     0     0     0
SMALL
USER_CHARGES

@<TRIPOS>ATOM
      1 C1         -4.9889    1.6676    1.6044 C.ar      1 <0>        -0.0825
      2 C2         -5.1515    0.5852    2.4439 C.ar      1 <0>        -0.1476
      3 C3         -4.1590    0.2553    3.3528 C.ar      1 <0>         0.1088
      4 C4         -2.9968    1.0068    3.4196 C.ar      1 <0>        -0.1459
      5 C5         -2.8226    2.0878    2.5806 C.ar      1 <0>        -0.0605
      6 C6         -3.8187    2.4239    1.6640 C.ar      1 <0>        -0.0334
      7 C7         -3.6369    3.5844    0.7611 C.2       1 <0>         0.0213
      8 C8         -2.4813    3.9172    0.0771 C.2       1 <0>         0.0584
      9 N1         -2.7736    5.0577   -0.6364 N.2       1 <0>        -0.4589
     10 H1         -5.4995    4.5281    0.8108 H         1 <0>         0.4283
     11 C9         -4.0574    5.3803   -0.3720 C.2       1 <0>         0.1755
     12 N2         -4.5646    4.5101    0.4564 N.pl3     1 <0>        -0.5045
     13 C10        -4.7920    6.5644   -0.9460 C.3       1 <0>         0.2262
     14 C11        -4.0745    7.8541   -0.5426 C.3       1 <0>        -0.1351
     15 C12        -4.8203    9.0563   -1.1254 C.3       1 <0>        -0.1165
     16 C13        -6.2518    9.0789   -0.5858 C.3       1 <0>        -0.1229
     17 C14        -6.9693    7.7891   -0.9892 C.3       1 <0>        -0.1122
     18 C15        -6.2235    6.5870   -0.4064 C.3       1 <0>        -0.1182
     19 O1         -4.8216    6.4615   -2.3710 O.3       1 <0>        -0.5397
     20 C16        -1.1962    3.1925    0.1027 C.ar      1 <0>         0.0432
     21 C17        -1.1504    1.8011   -0.0574 C.ar      1 <0>        -0.1536
     22 C18         0.0718    1.1646   -0.0221 C.ar      1 <0>         0.1018
     23 N3          1.1877    1.8484    0.1494 N.ar      1 <0>        -0.4834
     24 C19         1.1904    3.1599    0.2991 C.ar      1 <0>         0.1006
     25 C20         0.0134    3.8770    0.2822 C.ar      1 <0>        -0.1479
     26 F1         -4.3252   -0.8024    4.1768 F         1 <0>        -0.1345
     27 H2         -5.7649    1.9266    0.8991 H         1 <0>         0.1312
     28 H3         -6.0557   -0.0036    2.3956 H         1 <0>         0.1415
     29 H4         -2.2262    0.7459    4.1298 H         1 <0>         0.1422
     30 H5         -1.9165    2.6732    2.6336 H         1 <0>         0.1344
     31 H6         -4.0519    7.9326    0.5443 H         1 <0>         0.0713
     32 H7         -3.0547    7.8380   -0.9270 H         1 <0>         0.0792
     33 H8         -4.8428    8.9778   -2.2123 H         1 <0>         0.0726
     34 H9         -4.3091    9.9751   -0.8380 H         1 <0>         0.0667
     35 H10        -6.7831    9.9353   -1.0010 H         1 <0>         0.0670
     36 H11        -6.2292    9.1574    0.5011 H         1 <0>         0.0608
     37 H12        -6.9918    7.7106   -2.0762 H         1 <0>         0.0770
     38 H13        -7.9891    7.8052   -0.6048 H         1 <0>         0.0667
     39 H14        -6.7347    5.6682   -0.6938 H         1 <0>         0.0716
     40 H15        -6.2009    6.6655    0.6805 H         1 <0>         0.0769
     41 H16        -3.9466    6.4418   -2.7821 H         1 <0>         0.3877
     42 H17        -2.0591    1.2356   -0.2023 H         1 <0>         0.1329
     43 H18         0.1173    0.0922   -0.1410 H         1 <0>         0.1576
     44 H19         2.1279    3.6782    0.4365 H         1 <0>         0.1585
     45 H20         0.0232    4.9499    0.4057 H         1 <0>         0.1372
@<TRIPOS>BOND
     1    1    6 ar
     2    1    2 ar
     3    1   27 1
     4    2    3 ar
     5    2   28 1
     6    3    4 ar
     7    3   26 1
     8    4    5 ar
     9    4   29 1
    10    5    6 ar
    11    5   30 1
    12    6    7 1
    13    7   12 1
    14    7    8 2
    15    8    9 1
    16    8   20 1
    17    9   11 2
    18   10   12 1
    19   11   13 1
    20   11   12 1
    21   13   18 1
    22   13   14 1
    23   13   19 1
    24   14   15 1
    25   14   31 1
    26   14   32 1
    27   15   16 1
    28   15   33 1
    29   15   34 1
    30   16   17 1
    31   16   35 1
    32   16   36 1
    33   17   18 1
    34   17   37 1
    35   17   38 1
    36   18   39 1
    37   18   40 1
    38   19   41 1
    39   20   25 ar
    40   20   21 ar
    41   21   22 ar
    42   21   42 1
    43   22   23 ar
    44   22   43 1
    45   23   24 ar
    46   24   25 ar
    47   24   44 1
    48   25   45 1
@<TRIPOS>MOLECULE
ZINC03815731
   46    49     0     0     0
SMALL
USER_CHARGES

@<TRIPOS>ATOM
      1 C1         -4.9893    1.6671    1.6032 C.ar      1 <0>        -0.0606
      2 C2         -5.1520    0.5844    2.4424 C.ar      1 <0>        -0.1470
      3 C3         -4.1596    0.2542    3.3513 C.ar      1 <0>         0.1442
      4 C4         -2.9973    1.0056    3.4184 C.ar      1 <0>        -0.1466
      5 C5         -2.8230    2.0869    2.5797 C.ar      1 <0>        -0.0433
      6 C6         -3.8190    2.4233    1.6632 C.ar      1 <0>        -0.0870
      7 C7         -3.6371    3.5840    0.7606 C.2       1 <0>         0.1125
      8 C8         -2.4813    3.9172    0.0771 C.2       1 <0>         0.1159
      9 N1         -2.7736    5.0577   -0.6364 N.pl3     1 <0>        -0.4999
     10 H1         -2.1500    5.5553   -1.2393 H         1 <0>         0.4710
     11 C9         -4.0574    5.3803   -0.3720 C.cat     1 <0>         0.3003
     12 C10        -4.7920    6.5644   -0.9460 C.3       1 <0>         0.1948
     13 C11        -4.0745    7.8541   -0.5426 C.3       1 <0>        -0.1463
     14 C12        -4.8203    9.0563   -1.1254 C.3       1 <0>        -0.1169
     15 C13        -6.2518    9.0789   -0.5858 C.3       1 <0>        -0.1287
     16 C14        -6.9693    7.7891   -0.9892 C.3       1 <0>        -0.1145
     17 C15        -6.2235    6.5870   -0.4064 C.3       1 <0>        -0.1228
     18 O1         -4.8216    6.4615   -2.3710 O.3       1 <0>        -0.5136
     19 C16        -1.1962    3.1925    0.1027 C.ar      1 <0>        -0.0214
     20 C17        -1.1504    1.8011   -0.0574 C.ar      1 <0>        -0.1296
     21 C18         0.0718    1.1646   -0.0221 C.ar      1 <0>         0.1179
     22 N2          1.1877    1.8484    0.1494 N.ar      1 <0>        -0.4570
     23 C19         1.1904    3.1599    0.2991 C.ar      1 <0>         0.1169
     24 C20         0.0134    3.8770    0.2822 C.ar      1 <0>        -0.1484
     25 F1         -4.3259   -0.8037    4.1750 F         1 <0>        -0.1201
     26 H2         -5.7652    1.9263    0.8980 H         1 <0>         0.1386
     27 H3         -6.0562   -0.0043    2.3939 H         1 <0>         0.1533
     28 H4         -2.2268    0.7445    4.1286 H         1 <0>         0.1530
     29 H5         -1.9169    2.6722    2.6330 H         1 <0>         0.1395
     30 H6         -4.0519    7.9326    0.5443 H         1 <0>         0.0898
     31 H7         -3.0547    7.8380   -0.9270 H         1 <0>         0.0758
     32 H8         -4.8428    8.9778   -2.2123 H         1 <0>         0.0795
     33 H9         -4.3091    9.9751   -0.8380 H         1 <0>         0.0808
     34 H10        -6.7831    9.9353   -1.0010 H         1 <0>         0.0790
     35 H11        -6.2292    9.1574    0.5011 H         1 <0>         0.0672
     36 H12        -6.9918    7.7106   -2.0762 H         1 <0>         0.0833
     37 H13        -7.9891    7.8052   -0.6048 H         1 <0>         0.0812
     38 H14        -6.7347    5.6682   -0.6938 H         1 <0>         0.0849
     39 H15        -6.2009    6.6655    0.6805 H         1 <0>         0.0907
     40 H16        -3.9466    6.4418   -2.7821 H         1 <0>         0.3864
     41 H17        -2.0591    1.2356   -0.2023 H         1 <0>         0.1459
     42 H18         0.1173    0.0922   -0.1410 H         1 <0>         0.1723
     43 H19         2.1279    3.6782    0.4365 H         1 <0>         0.1716
     44 H20         0.0232    4.9499    0.4057 H         1 <0>         0.1418
     45 N3         -4.5652    4.5099    0.4563 N.pl3     1 <0>        -0.4642
     46 H21        -5.5252    4.5283    0.8201 H         1 <0>         0.4800
@<TRIPOS>BOND
     1    1    6 ar
     2    1    2 ar
     3    1   26 1
     4    2    3 ar
     5    2   27 1
     6    3    4 ar
     7    3   25 1
     8    4    5 ar
     9    4   28 1
    10    5    6 ar
    11    5   29 1
    12    6    7 1
    13    7    8 2
    14    7   45 1
    15    8    9 1
    16    8   19 1
    17    9   10 1
    18    9   11 1
    19   11   12 1
    20   11   45 2
    21   12   17 1
    22   12   13 1
    23   12   18 1
    24   13   14 1
    25   13   30 1
    26   13   31 1
    27   14   15 1
    28   14   32 1
    29   14   33 1
    30   15   16 1
    31   15   34 1
    32   15   35 1
    33   16   17 1
    34   16   36 1
    35   16   37 1
    36   17   38 1
    37   17   39 1
    38   18   40 1
    39   19   24 ar
    40   19   20 ar
    41   20   21 ar
    42   20   41 1
    43   21   22 ar
    44   21   42 1
    45   22   23 ar
    46   23   24 ar
    47   23   43 1
    48   24   44 1
    49   45   46 1
@<TRIPOS>MOLECULE
ZINC03815731
   45    48     0     0     0
SMALL
USER_CHARGES

@<TRIPOS>ATOM
      1 C1         -4.9889    1.6676    1.6044 C.ar      1 <0>        -0.0825
      2 C2         -5.1515    0.5852    2.4439 C.ar      1 <0>        -0.1476
      3 C3         -4.1590    0.2553    3.3528 C.ar      1 <0>         0.1088
      4 C4         -2.9968    1.0068    3.4196 C.ar      1 <0>        -0.1459
      5 C5         -2.8226    2.0878    2.5806 C.ar      1 <0>        -0.0605
      6 C6         -3.8187    2.4239    1.6640 C.ar      1 <0>        -0.0334
      7 C7         -3.6369    3.5844    0.7611 C.2       1 <0>         0.0213
      8 C8         -2.4813    3.9172    0.0771 C.2       1 <0>         0.0584
      9 N1         -2.7736    5.0577   -0.6364 N.2       1 <0>        -0.4589
     10 H1         -5.4995    4.5281    0.8108 H         1 <0>         0.4283
     11 C9         -4.0574    5.3803   -0.3720 C.2       1 <0>         0.1755
     12 N2         -4.5646    4.5101    0.4564 N.pl3     1 <0>        -0.5045
     13 C10        -4.7920    6.5644   -0.9460 C.3       1 <0>         0.2262
     14 C11        -4.0745    7.8541   -0.5426 C.3       1 <0>        -0.1351
     15 C12        -4.8203    9.0563   -1.1254 C.3       1 <0>        -0.1165
     16 C13        -6.2518    9.0789   -0.5858 C.3       1 <0>        -0.1229
     17 C14        -6.9693    7.7891   -0.9892 C.3       1 <0>        -0.1122
     18 C15        -6.2235    6.5870   -0.4064 C.3       1 <0>        -0.1182
     19 O1         -4.8216    6.4615   -2.3710 O.3       1 <0>        -0.5397
     20 C16        -1.1962    3.1925    0.1027 C.ar      1 <0>         0.0432
     21 C17        -1.1504    1.8011   -0.0574 C.ar      1 <0>        -0.1536
     22 C18         0.0718    1.1646   -0.0221 C.ar      1 <0>         0.1018
     23 N3          1.1877    1.8484    0.1494 N.ar      1 <0>        -0.4834
     24 C19         1.1904    3.1599    0.2991 C.ar      1 <0>         0.1006
     25 C20         0.0134    3.8770    0.2822 C.ar      1 <0>        -0.1479
     26 F1         -4.3252   -0.8024    4.1768 F         1 <0>        -0.1345
     27 H2         -5.7649    1.9266    0.8991 H         1 <0>         0.1312
     28 H3         -6.0557   -0.0036    2.3956 H         1 <0>         0.1415
     29 H4         -2.2262    0.7459    4.1298 H         1 <0>         0.1422
     30 H5         -1.9165    2.6732    2.6336 H         1 <0>         0.1344
     31 H6         -4.0519    7.9326    0.5443 H         1 <0>         0.0713
     32 H7         -3.0547    7.8380   -0.9270 H         1 <0>         0.0792
     33 H8         -4.8428    8.9778   -2.2123 H         1 <0>         0.0726
     34 H9         -4.3091    9.9751   -0.8380 H         1 <0>         0.0667
     35 H10        -6.7831    9.9353   -1.0010 H         1 <0>         0.0670
     36 H11        -6.2292    9.1574    0.5011 H         1 <0>         0.0608
     37 H12        -6.9918    7.7106   -2.0762 H         1 <0>         0.0770
     38 H13        -7.9891    7.8052   -0.6048 H         1 <0>         0.0667
     39 H14        -6.7347    5.6682   -0.6938 H         1 <0>         0.0716
     40 H15        -6.2009    6.6655    0.6805 H         1 <0>         0.0769
     41 H16        -3.9466    6.4418   -2.7821 H         1 <0>         0.3877
     42 H17        -2.0591    1.2356   -0.2023 H         1 <0>         0.1329
     43 H18         0.1173    0.0922   -0.1410 H         1 <0>         0.1576
     44 H19         2.1279    3.6782    0.4365 H         1 <0>         0.1585
     45 H20         0.0232    4.9499    0.4057 H         1 <0>         0.1372
@<TRIPOS>BOND
     1    1    6 ar
     2    1    2 ar
     3    1   27 1
     4    2    3 ar
     5    2   28 1
     6    3    4 ar
     7    3   26 1
     8    4    5 ar
     9    4   29 1
    10    5    6 ar
    11    5   30 1
    12    6    7 1
    13    7   12 1
    14    7    8 2
    15    8    9 1
    16    8   20 1
    17    9   11 2
    18   10   12 1
    19   11   13 1
    20   11   12 1
    21   13   18 1
    22   13   14 1
    23   13   19 1
    24   14   15 1
    25   14   31 1
    26   14   32 1
    27   15   16 1
    28   15   33 1
    29   15   34 1
    30   16   17 1
    31   16   35 1
    32   16   36 1
    33   17   18 1
    34   17   37 1
    35   17   38 1
    36   18   39 1
    37   18   40 1
    38   19   41 1
    39   20   25 ar
    40   20   21 ar
    41   21   22 ar
    42   21   42 1
    43   22   23 ar
    44   22   43 1
    45   23   24 ar
    46   24   25 ar
    47   24   44 1
    48   25   45 1
@<TRIPOS>MOLECULE
ZINC03815732
   38    41     0     0     0
SMALL
USER_CHARGES

@<TRIPOS>ATOM
      1 C1         -1.6264    8.9490   -1.8407 C.ar      1 <0>        -0.1064
      2 C2         -2.0431    7.6649   -2.1435 C.ar      1 <0>        -0.1145
      3 C3         -1.3363    6.5779   -1.6722 C.ar      1 <0>        -0.1123
      4 C4         -0.1983    6.7759   -0.8887 C.ar      1 <0>        -0.0221
      5 C5          0.2136    8.0738   -0.5825 C.ar      1 <0>        -0.0740
      6 C6         -0.4992    9.1522   -1.0645 C.ar      1 <0>        -0.1158
      7 C7          0.5641    5.6156   -0.3803 C.2       1 <0>         0.2418
      8 N1          1.6870    5.6841    0.3912 N.2       1 <0>        -0.4495
      9 H1         -0.5101    4.0302   -1.1378 H         1 <0>         0.4290
     10 C8          2.0804    4.3911    0.6516 C.2       1 <0>         0.0633
     11 C9          1.1694    3.5687    0.0089 C.2       1 <0>         0.0243
     12 N2          0.2679    4.3546   -0.5997 N.pl3     1 <0>        -0.5070
     13 C10         1.1838    2.0870    0.0009 C.ar      1 <0>        -0.0081
     14 C11        -0.0157    1.3752    0.0082 C.ar      1 <0>        -0.1114
     15 C12         0.0034   -0.0043    0.0002 C.ar      1 <0>        -0.0985
     16 C13         1.2090   -0.6825   -0.0151 C.ar      1 <0>        -0.1037
     17 C14         2.4031    0.0179   -0.0230 C.ar      1 <0>        -0.0278
     18 C15         2.3962    1.3992   -0.0147 C.ar      1 <0>        -0.0846
     19 Cl1         3.9115   -0.8411   -0.0429 Cl        1 <0>        -0.0574
     20 C16         3.2435    3.9654    1.4526 C.ar      1 <0>         0.0393
     21 C17         3.1292    2.9389    2.4002 C.ar      1 <0>        -0.1539
     22 C18         4.2435    2.5704    3.1231 C.ar      1 <0>         0.1030
     23 N3          5.4018    3.1762    2.9397 N.ar      1 <0>        -0.4814
     24 C19         5.5524    4.1505    2.0620 C.ar      1 <0>         0.1014
     25 C20         4.4930    4.5800    1.2918 C.ar      1 <0>        -0.1465
     26 H2         -2.1833    9.7966   -2.2121 H         1 <0>         0.1281
     27 H3         -2.9238    7.5131   -2.7498 H         1 <0>         0.1294
     28 H4         -1.6626    5.5761   -1.9093 H         1 <0>         0.1173
     29 H5          1.0908    8.2337    0.0269 H         1 <0>         0.1382
     30 H6         -0.1792   10.1571   -0.8318 H         1 <0>         0.1314
     31 H7         -0.9579    1.9031    0.0157 H         1 <0>         0.1264
     32 H8         -0.9251   -0.5561    0.0056 H         1 <0>         0.1385
     33 H9          1.2188   -1.7624   -0.0214 H         1 <0>         0.1386
     34 H10         3.3281    1.9451   -0.0205 H         1 <0>         0.1367
     35 H11         2.1836    2.4419    2.5588 H         1 <0>         0.1330
     36 H12         4.1667    1.7778    3.8527 H         1 <0>         0.1577
     37 H13         6.5191    4.6178    1.9459 H         1 <0>         0.1591
     38 H14         4.6237    5.3775    0.5754 H         1 <0>         0.1385
@<TRIPOS>BOND
     1    1    6 ar
     2    1    2 ar
     3    1   26 1
     4    2    3 ar
     5    2   27 1
     6    3    4 ar
     7    3   28 1
     8    4    5 ar
     9    4    7 1
    10    5    6 ar
    11    5   29 1
    12    6   30 1
    13    7    8 2
    14    7   12 1
    15    8   10 1
    16    9   12 1
    17   10   11 2
    18   10   20 1
    19   11   12 1
    20   11   13 1
    21   13   18 ar
    22   13   14 ar
    23   14   15 ar
    24   14   31 1
    25   15   16 ar
    26   15   32 1
    27   16   17 ar
    28   16   33 1
    29   17   18 ar
    30   17   19 1
    31   18   34 1
    32   20   25 ar
    33   20   21 ar
    34   21   22 ar
    35   21   35 1
    36   22   23 ar
    37   22   36 1
    38   23   24 ar
    39   24   25 ar
    40   24   37 1
    41   25   38 1
@<TRIPOS>MOLECULE
ZINC03815732
   39    42     0     0     0
SMALL
USER_CHARGES

@<TRIPOS>ATOM
      1 C1         -1.6264    8.9490   -1.8407 C.ar      1 <0>        -0.0631
      2 C2         -2.0431    7.6649   -2.1435 C.ar      1 <0>        -0.1054
      3 C3         -1.3363    6.5779   -1.6722 C.ar      1 <0>        -0.0746
      4 C4         -0.1983    6.7759   -0.8887 C.ar      1 <0>        -0.0955
      5 C5          0.2136    8.0738   -0.5825 C.ar      1 <0>        -0.0719
      6 C6         -0.4992    9.1522   -1.0645 C.ar      1 <0>        -0.1060
      7 C7          0.5641    5.6156   -0.3803 C.cat     1 <0>         0.3954
      8 N1          1.6870    5.6841    0.3912 N.pl3     1 <0>        -0.5085
      9 H1          2.1396    6.5176    0.7082 H         1 <0>         0.4717
     10 C8          2.0804    4.3911    0.6516 C.2       1 <0>         0.1187
     11 C9          1.1689    3.5687    0.0096 C.2       1 <0>         0.1098
     12 C10         1.1830    2.0870    0.0020 C.ar      1 <0>        -0.0548
     13 C11        -0.0166    1.3755    0.0096 C.ar      1 <0>        -0.0921
     14 C12         0.0021   -0.0041    0.0020 C.ar      1 <0>        -0.0943
     15 C13         1.2076   -0.6825   -0.0131 C.ar      1 <0>        -0.0754
     16 C14         2.4019    0.0176   -0.0212 C.ar      1 <0>        -0.0311
     17 C15         2.3953    1.3989   -0.0133 C.ar      1 <0>        -0.0725
     18 Cl1         3.9101   -0.8417   -0.0408 Cl        1 <0>        -0.0375
     19 C16         3.2435    3.9654    1.4526 C.ar      1 <0>        -0.0220
     20 C17         3.1292    2.9389    2.4002 C.ar      1 <0>        -0.1316
     21 C18         4.2435    2.5704    3.1231 C.ar      1 <0>         0.1185
     22 N2          5.4018    3.1762    2.9397 N.ar      1 <0>        -0.4562
     23 C19         5.5524    4.1505    2.0620 C.ar      1 <0>         0.1174
     24 C20         4.4930    4.5800    1.2918 C.ar      1 <0>        -0.1484
     25 H2         -2.1833    9.7966   -2.2121 H         1 <0>         0.1458
     26 H3         -2.9238    7.5131   -2.7498 H         1 <0>         0.1477
     27 H4         -1.6626    5.5761   -1.9093 H         1 <0>         0.1317
     28 H5          1.0908    8.2337    0.0269 H         1 <0>         0.1318
     29 H6         -0.1792   10.1571   -0.8318 H         1 <0>         0.1474
     30 H7         -0.9587    1.9036    0.0169 H         1 <0>         0.1335
     31 H8         -0.9265   -0.5556    0.0076 H         1 <0>         0.1498
     32 H9          1.2172   -1.7624   -0.0190 H         1 <0>         0.1494
     33 H10         3.3273    1.9446   -0.0193 H         1 <0>         0.1408
     34 H11         2.1836    2.4419    2.5588 H         1 <0>         0.1456
     35 H12         4.1667    1.7778    3.8527 H         1 <0>         0.1720
     36 H13         6.5191    4.6178    1.9459 H         1 <0>         0.1716
     37 H14         4.6237    5.3775    0.5754 H         1 <0>         0.1422
     38 N3          0.2671    4.3544   -0.5996 N.pl3     1 <0>        -0.4779
     39 H15        -0.5317    4.0213   -1.1520 H         1 <0>         0.4780
@<TRIPOS>BOND
     1    1    6 ar
     2    1    2 ar
     3    1   25 1
     4    2    3 ar
     5    2   26 1
     6    3    4 ar
     7    3   27 1
     8    4    5 ar
     9    4    7 1
    10    5    6 ar
    11    5   28 1
    12    6   29 1
    13    7    8 1
    14    7   38 2
    15    8    9 1
    16    8   10 1
    17   10   11 2
    18   10   19 1
    19   11   12 1
    20   11   38 1
    21   12   17 ar
    22   12   13 ar
    23   13   14 ar
    24   13   30 1
    25   14   15 ar
    26   14   31 1
    27   15   16 ar
    28   15   32 1
    29   16   17 ar
    30   16   18 1
    31   17   33 1
    32   19   24 ar
    33   19   20 ar
    34   20   21 ar
    35   20   34 1
    36   21   22 ar
    37   21   35 1
    38   22   23 ar
    39   23   24 ar
    40   23   36 1
    41   24   37 1
    42   38   39 1
@<TRIPOS>MOLECULE
ZINC03815732
   38    41     0     0     0
SMALL
USER_CHARGES

@<TRIPOS>ATOM
      1 C1         -1.6264    8.9490   -1.8407 C.ar      1 <0>        -0.1064
      2 C2         -2.0431    7.6649   -2.1435 C.ar      1 <0>        -0.1145
      3 C3         -1.3363    6.5779   -1.6722 C.ar      1 <0>        -0.1123
      4 C4         -0.1983    6.7759   -0.8887 C.ar      1 <0>        -0.0221
      5 C5          0.2136    8.0738   -0.5825 C.ar      1 <0>        -0.0740
      6 C6         -0.4992    9.1522   -1.0645 C.ar      1 <0>        -0.1158
      7 C7          0.5641    5.6156   -0.3803 C.2       1 <0>         0.2418
      8 N1          1.6870    5.6841    0.3912 N.2       1 <0>        -0.4495
      9 H1         -0.5101    4.0302   -1.1378 H         1 <0>         0.4290
     10 C8          2.0804    4.3911    0.6516 C.2       1 <0>         0.0633
     11 C9          1.1694    3.5687    0.0089 C.2       1 <0>         0.0243
     12 N2          0.2679    4.3546   -0.5997 N.pl3     1 <0>        -0.5070
     13 C10         1.1838    2.0870    0.0009 C.ar      1 <0>        -0.0081
     14 C11        -0.0157    1.3752    0.0082 C.ar      1 <0>        -0.1114
     15 C12         0.0034   -0.0043    0.0002 C.ar      1 <0>        -0.0985
     16 C13         1.2090   -0.6825   -0.0151 C.ar      1 <0>        -0.1037
     17 C14         2.4031    0.0179   -0.0230 C.ar      1 <0>        -0.0278
     18 C15         2.3962    1.3992   -0.0147 C.ar      1 <0>        -0.0846
     19 Cl1         3.9115   -0.8411   -0.0429 Cl        1 <0>        -0.0574
     20 C16         3.2435    3.9654    1.4526 C.ar      1 <0>         0.0393
     21 C17         3.1292    2.9389    2.4002 C.ar      1 <0>        -0.1539
     22 C18         4.2435    2.5704    3.1231 C.ar      1 <0>         0.1030
     23 N3          5.4018    3.1762    2.9397 N.ar      1 <0>        -0.4814
     24 C19         5.5524    4.1505    2.0620 C.ar      1 <0>         0.1014
     25 C20         4.4930    4.5800    1.2918 C.ar      1 <0>        -0.1465
     26 H2         -2.1833    9.7966   -2.2121 H         1 <0>         0.1281
     27 H3         -2.9238    7.5131   -2.7498 H         1 <0>         0.1294
     28 H4         -1.6626    5.5761   -1.9093 H         1 <0>         0.1173
     29 H5          1.0908    8.2337    0.0269 H         1 <0>         0.1382
     30 H6         -0.1792   10.1571   -0.8318 H         1 <0>         0.1314
     31 H7         -0.9579    1.9031    0.0157 H         1 <0>         0.1264
     32 H8         -0.9251   -0.5561    0.0056 H         1 <0>         0.1385
     33 H9          1.2188   -1.7624   -0.0214 H         1 <0>         0.1386
     34 H10         3.3281    1.9451   -0.0205 H         1 <0>         0.1367
     35 H11         2.1836    2.4419    2.5588 H         1 <0>         0.1330
     36 H12         4.1667    1.7778    3.8527 H         1 <0>         0.1577
     37 H13         6.5191    4.6178    1.9459 H         1 <0>         0.1591
     38 H14         4.6237    5.3775    0.5754 H         1 <0>         0.1385
@<TRIPOS>BOND
     1    1    6 ar
     2    1    2 ar
     3    1   26 1
     4    2    3 ar
     5    2   27 1
     6    3    4 ar
     7    3   28 1
     8    4    5 ar
     9    4    7 1
    10    5    6 ar
    11    5   29 1
    12    6   30 1
    13    7    8 2
    14    7   12 1
    15    8   10 1
    16    9   12 1
    17   10   11 2
    18   10   20 1
    19   11   12 1
    20   11   13 1
    21   13   18 ar
    22   13   14 ar
    23   14   15 ar
    24   14   31 1
    25   15   16 ar
    26   15   32 1
    27   16   17 ar
    28   16   33 1
    29   17   18 ar
    30   17   19 1
    31   18   34 1
    32   20   25 ar
    33   20   21 ar
    34   21   22 ar
    35   21   35 1
    36   22   23 ar
    37   22   36 1
    38   23   24 ar
    39   24   25 ar
    40   24   37 1
    41   25   38 1
@<TRIPOS>MOLECULE
ZINC03815734
   38    41     0     0     0
SMALL
USER_CHARGES

@<TRIPOS>ATOM
      1 C1         -6.2760    8.3838   -2.4226 C.ar      1 <0>        -0.1053
      2 C2         -6.9393    7.4717   -1.6210 C.ar      1 <0>        -0.1145
      3 C3         -6.2363    6.4716   -0.9815 C.ar      1 <0>        -0.1113
      4 C4         -4.8532    6.3809   -1.1449 C.ar      1 <0>        -0.0240
      5 C5         -4.1895    7.3074   -1.9507 C.ar      1 <0>        -0.0731
      6 C6         -4.9050    8.2994   -2.5888 C.ar      1 <0>        -0.1160
      7 C7         -4.0935    5.3117   -0.4626 C.2       1 <0>         0.2467
      8 N1         -2.7450    5.1232   -0.5461 N.2       1 <0>        -0.4493
      9 H1         -5.5793    4.3084    0.5509 H         1 <0>         0.4299
     10 C8         -2.4389    4.0290    0.2306 C.2       1 <0>         0.0704
     11 C9         -3.6365    3.5816    0.7644 C.2       1 <0>         0.0180
     12 N2         -4.6097    4.3919    0.3207 N.pl3     1 <0>        -0.5063
     13 C10        -3.8111    2.4182    1.6653 C.ar      1 <0>         0.0072
     14 C11        -3.1223    1.2315    1.4171 C.ar      1 <0>        -0.0792
     15 C12        -3.2843    0.1520    2.2634 C.ar      1 <0>        -0.0165
     16 C13        -4.1375    0.2430    3.3499 C.ar      1 <0>        -0.0963
     17 C14        -4.8281    1.4170    3.5976 C.ar      1 <0>        -0.0176
     18 C15        -4.6691    2.5044    2.7610 C.ar      1 <0>        -0.1021
     19 Cl1        -5.8963    1.5223    4.9620 Cl        1 <0>        -0.0468
     20 Cl2        -2.4221   -1.3239    1.9600 Cl        1 <0>        -0.0431
     21 C16        -1.1018    3.4451    0.4473 C.ar      1 <0>         0.0381
     22 C17        -0.2380    3.2031   -0.6298 C.ar      1 <0>        -0.1456
     23 C18         1.0003    2.6510   -0.3815 C.ar      1 <0>         0.1019
     24 N3          1.3791    2.3608    0.8492 N.ar      1 <0>        -0.4808
     25 C19         0.5996    2.5769    1.8922 C.ar      1 <0>         0.1036
     26 C20        -0.6572    3.1211    1.7364 C.ar      1 <0>        -0.1539
     27 H2         -6.8310    9.1648   -2.9210 H         1 <0>         0.1284
     28 H3         -8.0096    7.5430   -1.4955 H         1 <0>         0.1297
     29 H4         -6.7552    5.7602   -0.3561 H         1 <0>         0.1176
     30 H5         -3.1188    7.2454   -2.0776 H         1 <0>         0.1385
     31 H6         -4.3933    9.0145   -3.2158 H         1 <0>         0.1316
     32 H7         -2.4600    1.1580    0.5673 H         1 <0>         0.1428
     33 H8         -4.2649   -0.6050    4.0064 H         1 <0>         0.1498
     34 H9         -5.2087    3.4196    2.9550 H         1 <0>         0.1389
     35 H10        -0.5396    3.4418   -1.6390 H         1 <0>         0.1386
     36 H11         1.6718    2.4573   -1.2049 H         1 <0>         0.1594
     37 H12         0.9515    2.3240    2.8815 H         1 <0>         0.1581
     38 H13        -1.2897    3.2947    2.5944 H         1 <0>         0.1326
@<TRIPOS>BOND
     1    1    6 ar
     2    1    2 ar
     3    1   27 1
     4    2    3 ar
     5    2   28 1
     6    3    4 ar
     7    3   29 1
     8    4    5 ar
     9    4    7 1
    10    5    6 ar
    11    5   30 1
    12    6   31 1
    13    7    8 2
    14    7   12 1
    15    8   10 1
    16    9   12 1
    17   10   11 2
    18   10   21 1
    19   11   12 1
    20   11   13 1
    21   13   18 ar
    22   13   14 ar
    23   14   15 ar
    24   14   32 1
    25   15   16 ar
    26   15   20 1
    27   16   17 ar
    28   16   33 1
    29   17   18 ar
    30   17   19 1
    31   18   34 1
    32   21   26 ar
    33   21   22 ar
    34   22   23 ar
    35   22   35 1
    36   23   24 ar
    37   23   36 1
    38   24   25 ar
    39   25   26 ar
    40   25   37 1
    41   26   38 1
@<TRIPOS>MOLECULE
ZINC03815734
   39    42     0     0     0
SMALL
USER_CHARGES

@<TRIPOS>ATOM
      1 C1         -6.2760    8.3838   -2.4226 C.ar      1 <0>        -0.0620
      2 C2         -6.9393    7.4717   -1.6210 C.ar      1 <0>        -0.1054
      3 C3         -6.2363    6.4716   -0.9815 C.ar      1 <0>        -0.0738
      4 C4         -4.8532    6.3809   -1.1449 C.ar      1 <0>        -0.0971
      5 C5         -4.1895    7.3074   -1.9507 C.ar      1 <0>        -0.0710
      6 C6         -4.9050    8.2994   -2.5888 C.ar      1 <0>        -0.1061
      7 C7         -4.0935    5.3117   -0.4626 C.cat     1 <0>         0.3995
      8 N1         -2.7450    5.1232   -0.5461 N.pl3     1 <0>        -0.5092
      9 H1         -2.0997    5.6764   -1.0730 H         1 <0>         0.4726
     10 C8         -2.4389    4.0290    0.2306 C.2       1 <0>         0.1276
     11 C9         -3.6366    3.5811    0.7638 C.2       1 <0>         0.1035
     12 C10        -3.8113    2.4174    1.6643 C.ar      1 <0>        -0.0395
     13 C11        -3.1225    1.2308    1.4157 C.ar      1 <0>        -0.0676
     14 C12        -3.2846    0.1510    2.2616 C.ar      1 <0>        -0.0188
     15 C13        -4.1378    0.2416    3.3481 C.ar      1 <0>        -0.0702
     16 C14        -4.8284    1.4155    3.5962 C.ar      1 <0>        -0.0192
     17 C15        -4.6693    2.5032    2.7600 C.ar      1 <0>        -0.0857
     18 Cl1        -5.8967    1.5204    4.9605 Cl        1 <0>        -0.0255
     19 Cl2        -2.4224   -1.3248    1.9577 Cl        1 <0>        -0.0236
     20 C16        -1.1018    3.4451    0.4473 C.ar      1 <0>        -0.0243
     21 C17        -0.2380    3.2031   -0.6298 C.ar      1 <0>        -0.1469
     22 C18         1.0003    2.6510   -0.3815 C.ar      1 <0>         0.1176
     23 N2          1.3791    2.3608    0.8492 N.ar      1 <0>        -0.4556
     24 C19         0.5996    2.5769    1.8922 C.ar      1 <0>         0.1189
     25 C20        -0.6572    3.1211    1.7364 C.ar      1 <0>        -0.1308
     26 H2         -6.8310    9.1648   -2.9210 H         1 <0>         0.1460
     27 H3         -8.0096    7.5430   -1.4955 H         1 <0>         0.1480
     28 H4         -6.7552    5.7602   -0.3561 H         1 <0>         0.1320
     29 H5         -3.1188    7.2454   -2.0776 H         1 <0>         0.1320
     30 H6         -4.3933    9.0145   -3.2158 H         1 <0>         0.1477
     31 H7         -2.4601    1.1576    0.5659 H         1 <0>         0.1473
     32 H8         -4.2653   -0.6066    4.0042 H         1 <0>         0.1598
     33 H9         -5.2089    3.4184    2.9543 H         1 <0>         0.1455
     34 H10        -0.5396    3.4418   -1.6390 H         1 <0>         0.1429
     35 H11         1.6718    2.4573   -1.2049 H         1 <0>         0.1719
     36 H12         0.9515    2.3240    2.8815 H         1 <0>         0.1723
     37 H13        -1.2897    3.2947    2.5944 H         1 <0>         0.1452
     38 N3         -4.6104    4.3916    0.3204 N.pl3     1 <0>        -0.4773
     39 H14        -5.6059    4.3058    0.5567 H         1 <0>         0.4790
@<TRIPOS>BOND
     1    1    6 ar
     2    1    2 ar
     3    1   26 1
     4    2    3 ar
     5    2   27 1
     6    3    4 ar
     7    3   28 1
     8    4    5 ar
     9    4    7 1
    10    5    6 ar
    11    5   29 1
    12    6   30 1
    13    7    8 1
    14    7   38 2
    15    8    9 1
    16    8   10 1
    17   10   11 2
    18   10   20 1
    19   11   12 1
    20   11   38 1
    21   12   17 ar
    22   12   13 ar
    23   13   14 ar
    24   13   31 1
    25   14   15 ar
    26   14   19 1
    27   15   16 ar
    28   15   32 1
    29   16   17 ar
    30   16   18 1
    31   17   33 1
    32   20   25 ar
    33   20   21 ar
    34   21   22 ar
    35   21   34 1
    36   22   23 ar
    37   22   35 1
    38   23   24 ar
    39   24   25 ar
    40   24   36 1
    41   25   37 1
    42   38   39 1
@<TRIPOS>MOLECULE
ZINC03815734
   38    41     0     0     0
SMALL
USER_CHARGES

@<TRIPOS>ATOM
      1 C1         -6.2760    8.3838   -2.4226 C.ar      1 <0>        -0.1053
      2 C2         -6.9393    7.4717   -1.6210 C.ar      1 <0>        -0.1145
      3 C3         -6.2363    6.4716   -0.9815 C.ar      1 <0>        -0.1113
      4 C4         -4.8532    6.3809   -1.1449 C.ar      1 <0>        -0.0240
      5 C5         -4.1895    7.3074   -1.9507 C.ar      1 <0>        -0.0731
      6 C6         -4.9050    8.2994   -2.5888 C.ar      1 <0>        -0.1160
      7 C7         -4.0935    5.3117   -0.4626 C.2       1 <0>         0.2467
      8 N1         -2.7450    5.1232   -0.5461 N.2       1 <0>        -0.4493
      9 H1         -5.5793    4.3084    0.5509 H         1 <0>         0.4299
     10 C8         -2.4389    4.0290    0.2306 C.2       1 <0>         0.0704
     11 C9         -3.6365    3.5816    0.7644 C.2       1 <0>         0.0180
     12 N2         -4.6097    4.3919    0.3207 N.pl3     1 <0>        -0.5063
     13 C10        -3.8111    2.4182    1.6653 C.ar      1 <0>         0.0072
     14 C11        -3.1223    1.2315    1.4171 C.ar      1 <0>        -0.0792
     15 C12        -3.2843    0.1520    2.2634 C.ar      1 <0>        -0.0165
     16 C13        -4.1375    0.2430    3.3499 C.ar      1 <0>        -0.0963
     17 C14        -4.8281    1.4170    3.5976 C.ar      1 <0>        -0.0176
     18 C15        -4.6691    2.5044    2.7610 C.ar      1 <0>        -0.1021
     19 Cl1        -5.8963    1.5223    4.9620 Cl        1 <0>        -0.0468
     20 Cl2        -2.4221   -1.3239    1.9600 Cl        1 <0>        -0.0431
     21 C16        -1.1018    3.4451    0.4473 C.ar      1 <0>         0.0381
     22 C17        -0.2380    3.2031   -0.6298 C.ar      1 <0>        -0.1456
     23 C18         1.0003    2.6510   -0.3815 C.ar      1 <0>         0.1019
     24 N3          1.3791    2.3608    0.8492 N.ar      1 <0>        -0.4808
     25 C19         0.5996    2.5769    1.8922 C.ar      1 <0>         0.1036
     26 C20        -0.6572    3.1211    1.7364 C.ar      1 <0>        -0.1539
     27 H2         -6.8310    9.1648   -2.9210 H         1 <0>         0.1284
     28 H3         -8.0096    7.5430   -1.4955 H         1 <0>         0.1297
     29 H4         -6.7552    5.7602   -0.3561 H         1 <0>         0.1176
     30 H5         -3.1188    7.2454   -2.0776 H         1 <0>         0.1385
     31 H6         -4.3933    9.0145   -3.2158 H         1 <0>         0.1316
     32 H7         -2.4600    1.1580    0.5673 H         1 <0>         0.1428
     33 H8         -4.2649   -0.6050    4.0064 H         1 <0>         0.1498
     34 H9         -5.2087    3.4196    2.9550 H         1 <0>         0.1389
     35 H10        -0.5396    3.4418   -1.6390 H         1 <0>         0.1386
     36 H11         1.6718    2.4573   -1.2049 H         1 <0>         0.1594
     37 H12         0.9515    2.3240    2.8815 H         1 <0>         0.1581
     38 H13        -1.2897    3.2947    2.5944 H         1 <0>         0.1326
@<TRIPOS>BOND
     1    1    6 ar
     2    1    2 ar
     3    1   27 1
     4    2    3 ar
     5    2   28 1
     6    3    4 ar
     7    3   29 1
     8    4    5 ar
     9    4    7 1
    10    5    6 ar
    11    5   30 1
    12    6   31 1
    13    7    8 2
    14    7   12 1
    15    8   10 1
    16    9   12 1
    17   10   11 2
    18   10   21 1
    19   11   12 1
    20   11   13 1
    21   13   18 ar
    22   13   14 ar
    23   14   15 ar
    24   14   32 1
    25   15   16 ar
    26   15   20 1
    27   16   17 ar
    28   16   33 1
    29   17   18 ar
    30   17   19 1
    31   18   34 1
    32   21   26 ar
    33   21   22 ar
    34   22   23 ar
    35   22   35 1
    36   23   24 ar
    37   23   36 1
    38   24   25 ar
    39   25   26 ar
    40   25   37 1
    41   26   38 1
@<TRIPOS>MOLECULE
ZINC03815735
   39    42     0     0     0
SMALL
USER_CHARGES

@<TRIPOS>ATOM
      1 C1          2.5779   10.7600    1.9423 C.ar      1 <0>        -0.1068
      2 C2          3.0274    9.4839    2.2317 C.ar      1 <0>        -0.1143
      3 C3          2.3492    8.3842    1.7482 C.ar      1 <0>        -0.1125
      4 C4          1.2069    8.5610    0.9660 C.ar      1 <0>        -0.0216
      5 C5          0.7615    9.8511    0.6737 C.ar      1 <0>        -0.0745
      6 C6          1.4459   10.9423    1.1678 C.ar      1 <0>        -0.1159
      7 C7          0.4753    7.3870    0.4441 C.2       1 <0>         0.2394
      8 N1         -0.6488    7.4347   -0.3272 N.2       1 <0>        -0.4497
      9 H1          1.5905    5.8217    1.1842 H         1 <0>         0.4291
     10 C8         -1.0083    6.1348   -0.6020 C.2       1 <0>         0.0593
     11 C9         -0.0759    5.3294    0.0316 C.2       1 <0>         0.0274
     12 N2          0.8044    6.1317    0.6494 N.pl3     1 <0>        -0.5076
     13 C10        -0.0515    3.8478    0.0230 C.ar      1 <0>        -0.0050
     14 C11        -1.2466    3.1284    0.0302 C.ar      1 <0>        -0.0998
     15 C12        -1.2209    1.7487    0.0178 C.ar      1 <0>        -0.0936
     16 C13        -0.0130    1.0758    0.0086 C.ar      1 <0>        -0.1370
     17 C14         1.1809    1.7839    0.0009 C.ar      1 <0>         0.1128
     18 C15         1.1652    3.1689    0.0083 C.ar      1 <0>        -0.1417
     19 O1          2.3656    1.1180   -0.0135 O.3       1 <0>        -0.4978
     20 C16        -2.1593    5.6878   -1.4088 C.ar      1 <0>         0.0425
     21 C17        -2.0175    4.6755   -2.3679 C.ar      1 <0>        -0.1528
     22 C18        -3.1214    4.2857   -3.0956 C.ar      1 <0>         0.1007
     23 N3         -4.2953    4.8587   -2.9063 N.ar      1 <0>        -0.4833
     24 C19        -4.4721    5.8186   -2.0178 C.ar      1 <0>         0.1008
     25 C20        -3.4247    6.2674   -1.2422 C.ar      1 <0>        -0.1468
     26 H2          3.1126   11.6177    2.3229 H         1 <0>         0.1280
     27 H3          3.9115    9.3485    2.8371 H         1 <0>         0.1294
     28 H4          2.7011    7.3886    1.9748 H         1 <0>         0.1172
     29 H5         -0.1194    9.9947    0.0656 H         1 <0>         0.1381
     30 H6          1.0998   11.9410    0.9462 H         1 <0>         0.1312
     31 H7         -2.1917    3.6509    0.0417 H         1 <0>         0.1288
     32 H8         -2.1469    1.1928    0.0197 H         1 <0>         0.1346
     33 H9          0.0016   -0.0041    0.0027 H         1 <0>         0.1336
     34 H10         2.0934    3.7211    0.0024 H         1 <0>         0.1254
     35 H11         2.7002    0.9296   -0.9010 H         1 <0>         0.3941
     36 H12        -1.0590    4.2054   -2.5313 H         1 <0>         0.1333
     37 H13        -3.0233    3.5038   -3.8340 H         1 <0>         0.1577
     38 H14        -5.4509    6.2588   -1.8970 H         1 <0>         0.1589
     39 H15        -3.5767    7.0533   -0.5172 H         1 <0>         0.1383
@<TRIPOS>BOND
     1    1    6 ar
     2    1    2 ar
     3    1   26 1
     4    2    3 ar
     5    2   27 1
     6    3    4 ar
     7    3   28 1
     8    4    5 ar
     9    4    7 1
    10    5    6 ar
    11    5   29 1
    12    6   30 1
    13    7    8 2
    14    7   12 1
    15    8   10 1
    16    9   12 1
    17   10   11 2
    18   10   20 1
    19   11   12 1
    20   11   13 1
    21   13   18 ar
    22   13   14 ar
    23   14   15 ar
    24   14   31 1
    25   15   16 ar
    26   15   32 1
    27   16   17 ar
    28   16   33 1
    29   17   18 ar
    30   17   19 1
    31   18   34 1
    32   19   35 1
    33   20   25 ar
    34   20   21 ar
    35   21   22 ar
    36   21   36 1
    37   22   23 ar
    38   22   37 1
    39   23   24 ar
    40   24   25 ar
    41   24   38 1
    42   25   39 1
@<TRIPOS>MOLECULE
ZINC03815735
   40    43     0     0     0
SMALL
USER_CHARGES

@<TRIPOS>ATOM
      1 C1          2.5779   10.7600    1.9423 C.ar      1 <0>        -0.0635
      2 C2          3.0274    9.4839    2.2317 C.ar      1 <0>        -0.1053
      3 C3          2.3492    8.3842    1.7482 C.ar      1 <0>        -0.0748
      4 C4          1.2069    8.5610    0.9660 C.ar      1 <0>        -0.0951
      5 C5          0.7615    9.8511    0.6737 C.ar      1 <0>        -0.0723
      6 C6          1.4459   10.9423    1.1678 C.ar      1 <0>        -0.1061
      7 C7          0.4753    7.3870    0.4441 C.cat     1 <0>         0.3936
      8 N1         -0.6488    7.4347   -0.3272 N.pl3     1 <0>        -0.5085
      9 H1         -1.1229    8.2595   -0.6353 H         1 <0>         0.4713
     10 C8         -1.0083    6.1348   -0.6020 C.2       1 <0>         0.1148
     11 C9         -0.0758    5.3294    0.0314 C.2       1 <0>         0.1128
     12 C10        -0.0513    3.8478    0.0227 C.ar      1 <0>        -0.0509
     13 C11        -1.2463    3.1283    0.0298 C.ar      1 <0>        -0.0870
     14 C12        -1.2205    1.7486    0.0173 C.ar      1 <0>        -0.0904
     15 C13        -0.0126    1.0758    0.0080 C.ar      1 <0>        -0.1101
     16 C14         1.1813    1.7840    0.0004 C.ar      1 <0>         0.1214
     17 C15         1.1655    3.1690    0.0079 C.ar      1 <0>        -0.1256
     18 O1          2.3660    1.1182   -0.0141 O.3       1 <0>        -0.4926
     19 C16        -2.1593    5.6878   -1.4088 C.ar      1 <0>        -0.0186
     20 C17        -2.0175    4.6755   -2.3679 C.ar      1 <0>        -0.1303
     21 C18        -3.1214    4.2857   -3.0956 C.ar      1 <0>         0.1166
     22 N2         -4.2953    4.8587   -2.9063 N.ar      1 <0>        -0.4582
     23 C19        -4.4721    5.8186   -2.0178 C.ar      1 <0>         0.1168
     24 C20        -3.4247    6.2674   -1.2422 C.ar      1 <0>        -0.1489
     25 H2          3.1126   11.6177    2.3229 H         1 <0>         0.1457
     26 H3          3.9115    9.3485    2.8371 H         1 <0>         0.1477
     27 H4          2.7011    7.3886    1.9748 H         1 <0>         0.1316
     28 H5         -0.1194    9.9947    0.0656 H         1 <0>         0.1317
     29 H6          1.0998   11.9410    0.9462 H         1 <0>         0.1473
     30 H7         -2.1915    3.6508    0.0413 H         1 <0>         0.1332
     31 H8         -2.1465    1.1927    0.0191 H         1 <0>         0.1447
     32 H9          0.0021   -0.0041    0.0020 H         1 <0>         0.1447
     33 H10         2.0936    3.7212    0.0021 H         1 <0>         0.1324
     34 H11         2.7006    0.9299   -0.9016 H         1 <0>         0.4020
     35 H12        -1.0590    4.2054   -2.5313 H         1 <0>         0.1458
     36 H13        -3.0233    3.5038   -3.8340 H         1 <0>         0.1719
     37 H14        -5.4509    6.2588   -1.8970 H         1 <0>         0.1713
     38 H15        -3.5767    7.0533   -0.5172 H         1 <0>         0.1418
     39 N3          0.8050    6.1315    0.6496 N.pl3     1 <0>        -0.4788
     40 H16         1.6122    5.8132    1.1987 H         1 <0>         0.4781
@<TRIPOS>BOND
     1    1    6 ar
     2    1    2 ar
     3    1   25 1
     4    2    3 ar
     5    2   26 1
     6    3    4 ar
     7    3   27 1
     8    4    5 ar
     9    4    7 1
    10    5    6 ar
    11    5   28 1
    12    6   29 1
    13    7    8 1
    14    7   39 2
    15    8    9 1
    16    8   10 1
    17   10   11 2
    18   10   19 1
    19   11   12 1
    20   11   39 1
    21   12   17 ar
    22   12   13 ar
    23   13   14 ar
    24   13   30 1
    25   14   15 ar
    26   14   31 1
    27   15   16 ar
    28   15   32 1
    29   16   17 ar
    30   16   18 1
    31   17   33 1
    32   18   34 1
    33   19   24 ar
    34   19   20 ar
    35   20   21 ar
    36   20   35 1
    37   21   22 ar
    38   21   36 1
    39   22   23 ar
    40   23   24 ar
    41   23   37 1
    42   24   38 1
    43   39   40 1
@<TRIPOS>MOLECULE
ZINC03815735
   39    42     0     0     0
SMALL
USER_CHARGES

@<TRIPOS>ATOM
      1 C1          2.5779   10.7600    1.9423 C.ar      1 <0>        -0.1068
      2 C2          3.0274    9.4839    2.2317 C.ar      1 <0>        -0.1143
      3 C3          2.3492    8.3842    1.7482 C.ar      1 <0>        -0.1125
      4 C4          1.2069    8.5610    0.9660 C.ar      1 <0>        -0.0216
      5 C5          0.7615    9.8511    0.6737 C.ar      1 <0>        -0.0745
      6 C6          1.4459   10.9423    1.1678 C.ar      1 <0>        -0.1159
      7 C7          0.4753    7.3870    0.4441 C.2       1 <0>         0.2394
      8 N1         -0.6488    7.4347   -0.3272 N.2       1 <0>        -0.4497
      9 H1          1.5905    5.8217    1.1842 H         1 <0>         0.4291
     10 C8         -1.0083    6.1348   -0.6020 C.2       1 <0>         0.0593
     11 C9         -0.0759    5.3294    0.0316 C.2       1 <0>         0.0274
     12 N2          0.8044    6.1317    0.6494 N.pl3     1 <0>        -0.5076
     13 C10        -0.0515    3.8478    0.0230 C.ar      1 <0>        -0.0050
     14 C11        -1.2466    3.1284    0.0302 C.ar      1 <0>        -0.0998
     15 C12        -1.2209    1.7487    0.0178 C.ar      1 <0>        -0.0936
     16 C13        -0.0130    1.0758    0.0086 C.ar      1 <0>        -0.1370
     17 C14         1.1809    1.7839    0.0009 C.ar      1 <0>         0.1128
     18 C15         1.1652    3.1689    0.0083 C.ar      1 <0>        -0.1417
     19 O1          2.3656    1.1180   -0.0135 O.3       1 <0>        -0.4978
     20 C16        -2.1593    5.6878   -1.4088 C.ar      1 <0>         0.0425
     21 C17        -2.0175    4.6755   -2.3679 C.ar      1 <0>        -0.1528
     22 C18        -3.1214    4.2857   -3.0956 C.ar      1 <0>         0.1007
     23 N3         -4.2953    4.8587   -2.9063 N.ar      1 <0>        -0.4833
     24 C19        -4.4721    5.8186   -2.0178 C.ar      1 <0>         0.1008
     25 C20        -3.4247    6.2674   -1.2422 C.ar      1 <0>        -0.1468
     26 H2          3.1126   11.6177    2.3229 H         1 <0>         0.1280
     27 H3          3.9115    9.3485    2.8371 H         1 <0>         0.1294
     28 H4          2.7011    7.3886    1.9748 H         1 <0>         0.1172
     29 H5         -0.1194    9.9947    0.0656 H         1 <0>         0.1381
     30 H6          1.0998   11.9410    0.9462 H         1 <0>         0.1312
     31 H7         -2.1917    3.6509    0.0417 H         1 <0>         0.1288
     32 H8         -2.1469    1.1928    0.0197 H         1 <0>         0.1346
     33 H9          0.0016   -0.0041    0.0027 H         1 <0>         0.1336
     34 H10         2.0934    3.7211    0.0024 H         1 <0>         0.1254
     35 H11         2.7002    0.9296   -0.9010 H         1 <0>         0.3941
     36 H12        -1.0590    4.2054   -2.5313 H         1 <0>         0.1333
     37 H13        -3.0233    3.5038   -3.8340 H         1 <0>         0.1577
     38 H14        -5.4509    6.2588   -1.8970 H         1 <0>         0.1589
     39 H15        -3.5767    7.0533   -0.5172 H         1 <0>         0.1383
@<TRIPOS>BOND
     1    1    6 ar
     2    1    2 ar
     3    1   26 1
     4    2    3 ar
     5    2   27 1
     6    3    4 ar
     7    3   28 1
     8    4    5 ar
     9    4    7 1
    10    5    6 ar
    11    5   29 1
    12    6   30 1
    13    7    8 2
    14    7   12 1
    15    8   10 1
    16    9   12 1
    17   10   11 2
    18   10   20 1
    19   11   12 1
    20   11   13 1
    21   13   18 ar
    22   13   14 ar
    23   14   15 ar
    24   14   31 1
    25   15   16 ar
    26   15   32 1
    27   16   17 ar
    28   16   33 1
    29   17   18 ar
    30   17   19 1
    31   18   34 1
    32   19   35 1
    33   20   25 ar
    34   20   21 ar
    35   21   22 ar
    36   21   36 1
    37   22   23 ar
    38   22   37 1
    39   23   24 ar
    40   24   25 ar
    41   24   38 1
    42   25   39 1
@<TRIPOS>MOLECULE
ZINC03815736
   38    41     0     0     0
SMALL
USER_CHARGES

@<TRIPOS>ATOM
      1 C1         -6.1693    8.6063    2.2869 C.ar      1 <0>        -0.1067
      2 C2         -6.7814    7.8374    1.3130 C.ar      1 <0>        -0.1145
      3 C3         -6.1052    6.7818    0.7371 C.ar      1 <0>        -0.1125
      4 C4         -4.8008    6.4902    1.1390 C.ar      1 <0>        -0.0219
      5 C5         -4.1910    7.2665    2.1258 C.ar      1 <0>        -0.0743
      6 C6         -4.8763    8.3228    2.6895 C.ar      1 <0>        -0.1158
      7 C7         -4.0703    5.3601    0.5265 C.2       1 <0>         0.2403
      8 N1         -2.7991    4.9776    0.8401 N.2       1 <0>        -0.4494
      9 H1         -5.4548    4.6276   -0.8107 H         1 <0>         0.4289
     10 C8         -2.4937    3.8943    0.0473 C.2       1 <0>         0.0594
     11 C9         -3.6124    3.6542   -0.7338 C.2       1 <0>         0.0283
     12 N2         -4.5423    4.5644   -0.4065 N.pl3     1 <0>        -0.5080
     13 C10        -3.7583    2.5807   -1.7447 C.ar      1 <0>        -0.0330
     14 C11        -2.6643    2.1958   -2.5192 C.ar      1 <0>        -0.0619
     15 C12        -2.8040    1.1930   -3.4560 C.ar      1 <0>        -0.1447
     16 C13        -4.0312    0.5749   -3.6349 C.ar      1 <0>         0.1081
     17 C14        -5.1225    0.9574   -2.8714 C.ar      1 <0>        -0.1467
     18 C15        -4.9915    1.9560   -1.9287 C.ar      1 <0>        -0.0850
     19 F1         -4.1643   -0.4035   -4.5570 F         1 <0>        -0.1343
     20 C16        -1.2259    3.1407    0.0306 C.ar      1 <0>         0.0412
     21 C17        -1.2208    1.7390    0.0173 C.ar      1 <0>        -0.1547
     22 C18        -0.0126    1.0758    0.0080 C.ar      1 <0>         0.1013
     23 N3          1.1269    1.7422    0.0007 N.ar      1 <0>        -0.4830
     24 C19         1.1678    3.0615    0.0074 C.ar      1 <0>         0.1012
     25 C20         0.0079    3.8060    0.0224 C.ar      1 <0>        -0.1468
     26 H2         -6.7031    9.4316    2.7346 H         1 <0>         0.1280
     27 H3         -7.7910    8.0639    1.0032 H         1 <0>         0.1293
     28 H4         -6.5840    6.1826   -0.0232 H         1 <0>         0.1173
     29 H5         -3.1835    7.0433    2.4443 H         1 <0>         0.1381
     30 H6         -4.4041    8.9271    3.4500 H         1 <0>         0.1313
     31 H7         -1.7084    2.6798   -2.3833 H         1 <0>         0.1359
     32 H8         -1.9565    0.8919   -4.0540 H         1 <0>         0.1428
     33 H9         -6.0771    0.4733   -3.0149 H         1 <0>         0.1415
     34 H10        -5.8427    2.2537   -1.3343 H         1 <0>         0.1303
     35 H11        -2.1492    1.1872    0.0188 H         1 <0>         0.1341
     36 H12         0.0021   -0.0041    0.0020 H         1 <0>         0.1581
     37 H13         2.1234    3.5647    0.0006 H         1 <0>         0.1591
     38 H14         0.0490    4.8852    0.0282 H         1 <0>         0.1385
@<TRIPOS>BOND
     1    1    6 ar
     2    1    2 ar
     3    1   26 1
     4    2    3 ar
     5    2   27 1
     6    3    4 ar
     7    3   28 1
     8    4    5 ar
     9    4    7 1
    10    5    6 ar
    11    5   29 1
    12    6   30 1
    13    7    8 2
    14    7   12 1
    15    8   10 1
    16    9   12 1
    17   10   11 2
    18   10   20 1
    19   11   12 1
    20   11   13 1
    21   13   18 ar
    22   13   14 ar
    23   14   15 ar
    24   14   31 1
    25   15   16 ar
    26   15   32 1
    27   16   17 ar
    28   16   19 1
    29   17   18 ar
    30   17   33 1
    31   18   34 1
    32   20   25 ar
    33   20   21 ar
    34   21   22 ar
    35   21   35 1
    36   22   23 ar
    37   22   36 1
    38   23   24 ar
    39   24   25 ar
    40   24   37 1
    41   25   38 1
@<TRIPOS>MOLECULE
ZINC03815736
   39    42     0     0     0
SMALL
USER_CHARGES

@<TRIPOS>ATOM
      1 C1         -6.1693    8.6063    2.2869 C.ar      1 <0>        -0.0633
      2 C2         -6.7814    7.8374    1.3130 C.ar      1 <0>        -0.1055
      3 C3         -6.1052    6.7818    0.7371 C.ar      1 <0>        -0.0748
      4 C4         -4.8008    6.4902    1.1390 C.ar      1 <0>        -0.0954
      5 C5         -4.1910    7.2665    2.1258 C.ar      1 <0>        -0.0722
      6 C6         -4.8763    8.3228    2.6895 C.ar      1 <0>        -0.1060
      7 C7         -4.0703    5.3601    0.5265 C.cat     1 <0>         0.3942
      8 N1         -2.7991    4.9776    0.8401 N.pl3     1 <0>        -0.5082
      9 H1         -2.2011    5.4041    1.5187 H         1 <0>         0.4714
     10 C8         -2.4937    3.8943    0.0473 C.2       1 <0>         0.1142
     11 C9         -3.6156    3.6488   -0.7276 C.2       1 <0>         0.1146
     12 C10        -3.7637    2.5714   -1.7340 C.ar      1 <0>        -0.0830
     13 C11        -2.6710    2.1824   -2.5083 C.ar      1 <0>        -0.0463
     14 C12        -2.8128    1.1760   -3.4410 C.ar      1 <0>        -0.1457
     15 C13        -4.0408    0.5584   -3.6160 C.ar      1 <0>         0.1425
     16 C14        -5.1308    0.9450   -2.8527 C.ar      1 <0>        -0.1465
     17 C15        -4.9977    1.9472   -1.9141 C.ar      1 <0>        -0.0631
     18 F1         -4.1760   -0.4235   -4.5340 F         1 <0>        -0.1205
     19 C16        -1.2259    3.1407    0.0306 C.ar      1 <0>        -0.0200
     20 C17        -1.2208    1.7390    0.0173 C.ar      1 <0>        -0.1323
     21 C18        -0.0126    1.0758    0.0080 C.ar      1 <0>         0.1169
     22 N2          1.1269    1.7422    0.0007 N.ar      1 <0>        -0.4578
     23 C19         1.1678    3.0615    0.0074 C.ar      1 <0>         0.1170
     24 C20         0.0079    3.8060    0.0224 C.ar      1 <0>        -0.1486
     25 H2         -6.7031    9.4316    2.7346 H         1 <0>         0.1457
     26 H3         -7.7910    8.0639    1.0032 H         1 <0>         0.1476
     27 H4         -6.5840    6.1826   -0.0232 H         1 <0>         0.1317
     28 H5         -3.1835    7.0433    2.4443 H         1 <0>         0.1317
     29 H6         -4.4041    8.9271    3.4500 H         1 <0>         0.1473
     30 H7         -1.7145    2.6660   -2.3755 H         1 <0>         0.1403
     31 H8         -1.9663    0.8717   -4.0388 H         1 <0>         0.1530
     32 H9         -6.0861    0.4613   -2.9931 H         1 <0>         0.1528
     33 H10        -5.8479    2.2481   -1.3199 H         1 <0>         0.1373
     34 H11        -2.1492    1.1872    0.0188 H         1 <0>         0.1466
     35 H12         0.0021   -0.0041    0.0020 H         1 <0>         0.1722
     36 H13         2.1234    3.5647    0.0006 H         1 <0>         0.1715
     37 H14         0.0490    4.8852    0.0282 H         1 <0>         0.1422
     38 N3         -4.5448    4.5612   -0.4031 N.pl3     1 <0>        -0.4793
     39 H15        -5.4821    4.6253   -0.8172 H         1 <0>         0.4778
@<TRIPOS>BOND
     1    1    6 ar
     2    1    2 ar
     3    1   25 1
     4    2    3 ar
     5    2   26 1
     6    3    4 ar
     7    3   27 1
     8    4    5 ar
     9    4    7 1
    10    5    6 ar
    11    5   28 1
    12    6   29 1
    13    7    8 1
    14    7   38 2
    15    8    9 1
    16    8   10 1
    17   10   11 2
    18   10   19 1
    19   11   12 1
    20   11   38 1
    21   12   17 ar
    22   12   13 ar
    23   13   14 ar
    24   13   30 1
    25   14   15 ar
    26   14   31 1
    27   15   16 ar
    28   15   18 1
    29   16   17 ar
    30   16   32 1
    31   17   33 1
    32   19   24 ar
    33   19   20 ar
    34   20   21 ar
    35   20   34 1
    36   21   22 ar
    37   21   35 1
    38   22   23 ar
    39   23   24 ar
    40   23   36 1
    41   24   37 1
    42   38   39 1
@<TRIPOS>MOLECULE
ZINC03815736
   38    41     0     0     0
SMALL
USER_CHARGES

@<TRIPOS>ATOM
      1 C1         -6.1693    8.6063    2.2869 C.ar      1 <0>        -0.1067
      2 C2         -6.7814    7.8374    1.3130 C.ar      1 <0>        -0.1145
      3 C3         -6.1052    6.7818    0.7371 C.ar      1 <0>        -0.1125
      4 C4         -4.8008    6.4902    1.1390 C.ar      1 <0>        -0.0219
      5 C5         -4.1910    7.2665    2.1258 C.ar      1 <0>        -0.0743
      6 C6         -4.8763    8.3228    2.6895 C.ar      1 <0>        -0.1158
      7 C7         -4.0703    5.3601    0.5265 C.2       1 <0>         0.2403
      8 N1         -2.7991    4.9776    0.8401 N.2       1 <0>        -0.4494
      9 H1         -5.4548    4.6276   -0.8107 H         1 <0>         0.4289
     10 C8         -2.4937    3.8943    0.0473 C.2       1 <0>         0.0594
     11 C9         -3.6124    3.6542   -0.7338 C.2       1 <0>         0.0283
     12 N2         -4.5423    4.5644   -0.4065 N.pl3     1 <0>        -0.5080
     13 C10        -3.7583    2.5807   -1.7447 C.ar      1 <0>        -0.0330
     14 C11        -2.6643    2.1958   -2.5192 C.ar      1 <0>        -0.0619
     15 C12        -2.8040    1.1930   -3.4560 C.ar      1 <0>        -0.1447
     16 C13        -4.0312    0.5749   -3.6349 C.ar      1 <0>         0.1081
     17 C14        -5.1225    0.9574   -2.8714 C.ar      1 <0>        -0.1467
     18 C15        -4.9915    1.9560   -1.9287 C.ar      1 <0>        -0.0850
     19 F1         -4.1643   -0.4035   -4.5570 F         1 <0>        -0.1343
     20 C16        -1.2259    3.1407    0.0306 C.ar      1 <0>         0.0412
     21 C17        -1.2208    1.7390    0.0173 C.ar      1 <0>        -0.1547
     22 C18        -0.0126    1.0758    0.0080 C.ar      1 <0>         0.1013
     23 N3          1.1269    1.7422    0.0007 N.ar      1 <0>        -0.4830
     24 C19         1.1678    3.0615    0.0074 C.ar      1 <0>         0.1012
     25 C20         0.0079    3.8060    0.0224 C.ar      1 <0>        -0.1468
     26 H2         -6.7031    9.4316    2.7346 H         1 <0>         0.1280
     27 H3         -7.7910    8.0639    1.0032 H         1 <0>         0.1293
     28 H4         -6.5840    6.1826   -0.0232 H         1 <0>         0.1173
     29 H5         -3.1835    7.0433    2.4443 H         1 <0>         0.1381
     30 H6         -4.4041    8.9271    3.4500 H         1 <0>         0.1313
     31 H7         -1.7084    2.6798   -2.3833 H         1 <0>         0.1359
     32 H8         -1.9565    0.8919   -4.0540 H         1 <0>         0.1428
     33 H9         -6.0771    0.4733   -3.0149 H         1 <0>         0.1415
     34 H10        -5.8427    2.2537   -1.3343 H         1 <0>         0.1303
     35 H11        -2.1492    1.1872    0.0188 H         1 <0>         0.1341
     36 H12         0.0021   -0.0041    0.0020 H         1 <0>         0.1581
     37 H13         2.1234    3.5647    0.0006 H         1 <0>         0.1591
     38 H14         0.0490    4.8852    0.0282 H         1 <0>         0.1385
@<TRIPOS>BOND
     1    1    6 ar
     2    1    2 ar
     3    1   26 1
     4    2    3 ar
     5    2   27 1
     6    3    4 ar
     7    3   28 1
     8    4    5 ar
     9    4    7 1
    10    5    6 ar
    11    5   29 1
    12    6   30 1
    13    7    8 2
    14    7   12 1
    15    8   10 1
    16    9   12 1
    17   10   11 2
    18   10   20 1
    19   11   12 1
    20   11   13 1
    21   13   18 ar
    22   13   14 ar
    23   14   15 ar
    24   14   31 1
    25   15   16 ar
    26   15   32 1
    27   16   17 ar
    28   16   19 1
    29   17   18 ar
    30   17   33 1
    31   18   34 1
    32   20   25 ar
    33   20   21 ar
    34   21   22 ar
    35   21   35 1
    36   22   23 ar
    37   22   36 1
    38   23   24 ar
    39   24   25 ar
    40   24   37 1
    41   25   38 1
@<TRIPOS>MOLECULE
ZINC03815738
   39    42     0     0     0
SMALL
USER_CHARGES

@<TRIPOS>ATOM
      1 C1          5.6416    0.5396   -4.0838 C.ar      1 <0>        -0.0625
      2 C2          6.5156    0.9307   -5.0768 C.ar      1 <0>        -0.1448
      3 C3          6.2949    2.1085   -5.7728 C.ar      1 <0>         0.1082
      4 C4          5.1935    2.8962   -5.4787 C.ar      1 <0>        -0.1467
      5 C5          4.3109    2.5108   -4.4912 C.ar      1 <0>        -0.0848
      6 C6          4.5285    1.3261   -3.7881 C.ar      1 <0>        -0.0324
      7 C7          3.5836    0.9077   -2.7266 C.2       1 <0>         0.0232
      8 C8          3.2231   -0.3913   -2.4160 C.2       1 <0>         0.0595
      9 N1          2.3316   -0.3020   -1.3707 N.2       1 <0>        -0.4605
     10 H1          2.9904    2.7182   -1.8707 H         1 <0>         0.4277
     11 C9          2.1789    1.0079   -1.0824 C.2       1 <0>         0.1838
     12 N2          2.9223    1.7206   -1.8826 N.pl3     1 <0>        -0.5045
     13 C10         1.2864    1.5618   -0.0018 C.3       1 <0>         0.1946
     14 C11         1.9527    1.6093    1.3833 C.3       1 <0>        -0.1529
     15 C12         1.2654    2.9744    1.5771 C.3       1 <0>        -0.1299
     16 C13         1.2557    3.0986    0.0443 C.3       1 <0>        -0.1349
     17 O1         -0.0110    0.9628    0.0073 O.3       1 <0>        -0.5242
     18 C14         3.6957   -1.6241   -3.0751 C.ar      1 <0>         0.0411
     19 C15         3.7673   -1.7122   -4.4719 C.ar      1 <0>        -0.1550
     20 C16         4.2197   -2.8814   -5.0449 C.ar      1 <0>         0.1015
     21 N3          4.5720   -3.9108   -4.2976 N.ar      1 <0>        -0.4829
     22 C17         4.5153   -3.8723   -2.9794 C.ar      1 <0>         0.1011
     23 C18         4.0801   -2.7417   -2.3220 C.ar      1 <0>        -0.1471
     24 F1          7.1565    2.4900   -6.7409 F         1 <0>        -0.1342
     25 H2          5.8169   -0.3762   -3.5388 H         1 <0>         0.1355
     26 H3          7.3754    0.3200   -5.3095 H         1 <0>         0.1428
     27 H4          5.0261    3.8136   -6.0235 H         1 <0>         0.1416
     28 H5          3.4529    3.1257   -4.2625 H         1 <0>         0.1303
     29 H6          1.5958    0.8384    2.0662 H         1 <0>         0.0856
     30 H7          3.0402    1.6699    1.3428 H         1 <0>         0.0893
     31 H8          1.8953    3.7142    2.0711 H         1 <0>         0.0772
     32 H9          0.2701    2.9052    2.0158 H         1 <0>         0.0934
     33 H10         2.1531    3.5656   -0.3616 H         1 <0>         0.0871
     34 H11         0.3372    3.5292   -0.3544 H         1 <0>         0.0904
     35 H12         0.0021   -0.0041    0.0020 H         1 <0>         0.3940
     36 H13         3.4763   -0.8755   -5.0897 H         1 <0>         0.1339
     37 H14         4.2820   -2.9579   -6.1204 H         1 <0>         0.1582
     38 H15         4.8138   -4.7388   -2.4081 H         1 <0>         0.1590
     39 H16         4.0363   -2.7173   -1.2432 H         1 <0>         0.1380
@<TRIPOS>BOND
     1    1    6 ar
     2    1    2 ar
     3    1   25 1
     4    2    3 ar
     5    2   26 1
     6    3    4 ar
     7    3   24 1
     8    4    5 ar
     9    4   27 1
    10    5    6 ar
    11    5   28 1
    12    6    7 1
    13    7   12 1
    14    7    8 2
    15    8    9 1
    16    8   18 1
    17    9   11 2
    18   10   12 1
    19   11   13 1
    20   11   12 1
    21   13   16 1
    22   13   14 1
    23   13   17 1
    24   14   15 1
    25   14   29 1
    26   14   30 1
    27   15   16 1
    28   15   31 1
    29   15   32 1
    30   16   33 1
    31   16   34 1
    32   17   35 1
    33   18   23 ar
    34   18   19 ar
    35   19   20 ar
    36   19   36 1
    37   20   21 ar
    38   20   37 1
    39   21   22 ar
    40   22   23 ar
    41   22   38 1
    42   23   39 1
@<TRIPOS>MOLECULE
ZINC03815738
   40    43     0     0     0
SMALL
USER_CHARGES

@<TRIPOS>ATOM
      1 C1          5.6548    0.5377   -4.0682 C.ar      1 <0>        -0.0453
      2 C2          6.5337    0.9285   -5.0570 C.ar      1 <0>        -0.1459
      3 C3          6.3174    2.1068   -5.7533 C.ar      1 <0>         0.1446
      4 C4          5.2155    2.8955   -5.4639 C.ar      1 <0>        -0.1463
      5 C5          4.3280    2.5105   -4.4806 C.ar      1 <0>        -0.0619
      6 C6          4.5412    1.3252   -3.7772 C.ar      1 <0>        -0.0855
      7 C7          3.5910    0.9072   -2.7202 C.2       1 <0>         0.1144
      8 C8          3.2231   -0.3913   -2.4160 C.2       1 <0>         0.1143
      9 N1          2.3316   -0.3020   -1.3707 N.pl3     1 <0>        -0.5008
     10 H1          1.8805   -1.0664   -0.9101 H         1 <0>         0.4712
     11 C9          2.1789    1.0079   -1.0824 C.cat     1 <0>         0.3097
     12 C10         1.2864    1.5618   -0.0018 C.3       1 <0>         0.1527
     13 C11         1.9527    1.6093    1.3833 C.3       1 <0>        -0.1553
     14 C12         1.2654    2.9744    1.5771 C.3       1 <0>        -0.1261
     15 C13         1.2557    3.0986    0.0443 C.3       1 <0>        -0.1290
     16 O1         -0.0110    0.9628    0.0073 O.3       1 <0>        -0.4981
     17 C14         3.6957   -1.6241   -3.0751 C.ar      1 <0>        -0.0219
     18 C15         3.7673   -1.7122   -4.4719 C.ar      1 <0>        -0.1316
     19 C16         4.2197   -2.8814   -5.0449 C.ar      1 <0>         0.1179
     20 N2          4.5720   -3.9108   -4.2976 N.ar      1 <0>        -0.4567
     21 C17         4.5153   -3.8723   -2.9794 C.ar      1 <0>         0.1176
     22 C18         4.0801   -2.7417   -2.3220 C.ar      1 <0>        -0.1486
     23 F1          7.1838    2.4880   -6.7173 F         1 <0>        -0.1197
     24 H2          5.8267   -0.3786   -3.5229 H         1 <0>         0.1402
     25 H3          7.3940    0.3170   -5.2861 H         1 <0>         0.1536
     26 H4          5.0515    3.8134   -6.0089 H         1 <0>         0.1536
     27 H5          3.4696    3.1261   -4.2555 H         1 <0>         0.1377
     28 H6          1.5958    0.8384    2.0662 H         1 <0>         0.1015
     29 H7          3.0402    1.6699    1.3428 H         1 <0>         0.1020
     30 H8          1.8953    3.7142    2.0711 H         1 <0>         0.0941
     31 H9          0.2701    2.9052    2.0158 H         1 <0>         0.1053
     32 H10         2.1531    3.5656   -0.3616 H         1 <0>         0.0977
     33 H11         0.3372    3.5292   -0.3544 H         1 <0>         0.1092
     34 H12         0.0021   -0.0041    0.0020 H         1 <0>         0.3888
     35 H13         3.4763   -0.8755   -5.0897 H         1 <0>         0.1467
     36 H14         4.2820   -2.9579   -6.1204 H         1 <0>         0.1729
     37 H15         4.8138   -4.7388   -2.4081 H         1 <0>         0.1720
     38 H16         4.0363   -2.7173   -1.2432 H         1 <0>         0.1420
     39 N3          2.9267    1.7209   -1.8788 N.pl3     1 <0>        -0.4662
     40 H17         2.9976    2.7451   -1.8657 H         1 <0>         0.4787
@<TRIPOS>BOND
     1    1    6 ar
     2    1    2 ar
     3    1   24 1
     4    2    3 ar
     5    2   25 1
     6    3    4 ar
     7    3   23 1
     8    4    5 ar
     9    4   26 1
    10    5    6 ar
    11    5   27 1
    12    6    7 1
    13    7    8 2
    14    7   39 1
    15    8    9 1
    16    8   17 1
    17    9   10 1
    18    9   11 1
    19   11   12 1
    20   11   39 2
    21   12   15 1
    22   12   13 1
    23   12   16 1
    24   13   14 1
    25   13   28 1
    26   13   29 1
    27   14   15 1
    28   14   30 1
    29   14   31 1
    30   15   32 1
    31   15   33 1
    32   16   34 1
    33   17   22 ar
    34   17   18 ar
    35   18   19 ar
    36   18   35 1
    37   19   20 ar
    38   19   36 1
    39   20   21 ar
    40   21   22 ar
    41   21   37 1
    42   22   38 1
    43   39   40 1
@<TRIPOS>MOLECULE
ZINC03815738
   39    42     0     0     0
SMALL
USER_CHARGES

@<TRIPOS>ATOM
      1 C1          5.6416    0.5396   -4.0838 C.ar      1 <0>        -0.0625
      2 C2          6.5156    0.9307   -5.0768 C.ar      1 <0>        -0.1448
      3 C3          6.2949    2.1085   -5.7728 C.ar      1 <0>         0.1082
      4 C4          5.1935    2.8962   -5.4787 C.ar      1 <0>        -0.1467
      5 C5          4.3109    2.5108   -4.4912 C.ar      1 <0>        -0.0848
      6 C6          4.5285    1.3261   -3.7881 C.ar      1 <0>        -0.0324
      7 C7          3.5836    0.9077   -2.7266 C.2       1 <0>         0.0232
      8 C8          3.2231   -0.3913   -2.4160 C.2       1 <0>         0.0595
      9 N1          2.3316   -0.3020   -1.3707 N.2       1 <0>        -0.4605
     10 H1          2.9904    2.7182   -1.8707 H         1 <0>         0.4277
     11 C9          2.1789    1.0079   -1.0824 C.2       1 <0>         0.1838
     12 N2          2.9223    1.7206   -1.8826 N.pl3     1 <0>        -0.5045
     13 C10         1.2864    1.5618   -0.0018 C.3       1 <0>         0.1946
     14 C11         1.9527    1.6093    1.3833 C.3       1 <0>        -0.1529
     15 C12         1.2654    2.9744    1.5771 C.3       1 <0>        -0.1299
     16 C13         1.2557    3.0986    0.0443 C.3       1 <0>        -0.1349
     17 O1         -0.0110    0.9628    0.0073 O.3       1 <0>        -0.5242
     18 C14         3.6957   -1.6241   -3.0751 C.ar      1 <0>         0.0411
     19 C15         3.7673   -1.7122   -4.4719 C.ar      1 <0>        -0.1550
     20 C16         4.2197   -2.8814   -5.0449 C.ar      1 <0>         0.1015
     21 N3          4.5720   -3.9108   -4.2976 N.ar      1 <0>        -0.4829
     22 C17         4.5153   -3.8723   -2.9794 C.ar      1 <0>         0.1011
     23 C18         4.0801   -2.7417   -2.3220 C.ar      1 <0>        -0.1471
     24 F1          7.1565    2.4900   -6.7409 F         1 <0>        -0.1342
     25 H2          5.8169   -0.3762   -3.5388 H         1 <0>         0.1355
     26 H3          7.3754    0.3200   -5.3095 H         1 <0>         0.1428
     27 H4          5.0261    3.8136   -6.0235 H         1 <0>         0.1416
     28 H5          3.4529    3.1257   -4.2625 H         1 <0>         0.1303
     29 H6          1.5958    0.8384    2.0662 H         1 <0>         0.0856
     30 H7          3.0402    1.6699    1.3428 H         1 <0>         0.0893
     31 H8          1.8953    3.7142    2.0711 H         1 <0>         0.0772
     32 H9          0.2701    2.9052    2.0158 H         1 <0>         0.0934
     33 H10         2.1531    3.5656   -0.3616 H         1 <0>         0.0871
     34 H11         0.3372    3.5292   -0.3544 H         1 <0>         0.0904
     35 H12         0.0021   -0.0041    0.0020 H         1 <0>         0.3940
     36 H13         3.4763   -0.8755   -5.0897 H         1 <0>         0.1339
     37 H14         4.2820   -2.9579   -6.1204 H         1 <0>         0.1582
     38 H15         4.8138   -4.7388   -2.4081 H         1 <0>         0.1590
     39 H16         4.0363   -2.7173   -1.2432 H         1 <0>         0.1380
@<TRIPOS>BOND
     1    1    6 ar
     2    1    2 ar
     3    1   25 1
     4    2    3 ar
     5    2   26 1
     6    3    4 ar
     7    3   24 1
     8    4    5 ar
     9    4   27 1
    10    5    6 ar
    11    5   28 1
    12    6    7 1
    13    7   12 1
    14    7    8 2
    15    8    9 1
    16    8   18 1
    17    9   11 2
    18   10   12 1
    19   11   13 1
    20   11   12 1
    21   13   16 1
    22   13   14 1
    23   13   17 1
    24   14   15 1
    25   14   29 1
    26   14   30 1
    27   15   16 1
    28   15   31 1
    29   15   32 1
    30   16   33 1
    31   16   34 1
    32   17   35 1
    33   18   23 ar
    34   18   19 ar
    35   19   20 ar
    36   19   36 1
    37   20   21 ar
    38   20   37 1
    39   21   22 ar
    40   22   23 ar
    41   22   38 1
    42   23   39 1
@<TRIPOS>MOLECULE
ZINC03815740
   41    43     0     0     0
SMALL
USER_CHARGES

@<TRIPOS>ATOM
      1 C1         -2.3934    1.5612   -6.9412 C.3       1 <0>        -0.1210
      2 S1         -2.0397    2.7859   -5.6507 S.3       1 <0>        -0.2569
      3 C2         -3.0402    2.2385   -4.2401 C.3       1 <0>        -0.0856
      4 C3         -2.8332    3.1968   -3.0655 C.3       1 <0>        -0.1182
      5 C4         -3.6770    2.7351   -1.8757 C.3       1 <0>         0.1057
      6 N1         -3.5714    3.7156   -0.7923 N.pl3     1 <0>        -0.4448
      7 C5         -4.4407    4.7146   -0.5305 C.2       1 <0>         0.2037
      8 N2         -4.0270    5.3935    0.5033 N.2       1 <0>        -0.4756
      9 C6         -2.8775    4.8637    0.9597 C.2       1 <0>         0.0724
     10 C7         -2.5684    3.7868    0.1481 C.2       1 <0>         0.0159
     11 C8         -1.3965    2.8976    0.2632 C.ar      1 <0>         0.0313
     12 C9         -1.5526    1.5078    0.3520 C.ar      1 <0>        -0.1677
     13 C10        -0.4302    0.7154    0.4628 C.ar      1 <0>         0.1061
     14 N3          0.7774    1.2482    0.4759 N.ar      1 <0>        -0.4794
     15 C11         0.9699    2.5512    0.3896 C.ar      1 <0>         0.1083
     16 C12        -0.0957    3.4187    0.2811 C.ar      1 <0>        -0.1449
     17 C13        -2.0887    5.3444    2.1180 C.ar      1 <0>        -0.0163
     18 C14        -1.4192    4.4336    2.9349 C.ar      1 <0>        -0.0738
     19 C15        -0.6824    4.8865    4.0096 C.ar      1 <0>        -0.1513
     20 C16        -0.6151    6.2430    4.2841 C.ar      1 <0>         0.1023
     21 C17        -1.2825    7.1515    3.4782 C.ar      1 <0>        -0.1527
     22 C18        -2.0179    6.7088    2.3983 C.ar      1 <0>        -0.0615
     23 F1          0.1031    6.6813    5.3411 F         1 <0>        -0.1382
     24 H1         -1.8301    1.8085   -7.8410 H         1 <0>         0.1050
     25 H2         -2.1028    0.5706   -6.5915 H         1 <0>         0.0779
     26 H3         -3.4598    1.5686   -7.1666 H         1 <0>         0.0781
     27 H4         -2.7360    1.2336   -3.9471 H         1 <0>         0.0850
     28 H5         -4.0930    2.2316   -4.5222 H         1 <0>         0.0865
     29 H6         -3.1374    4.2017   -3.3585 H         1 <0>         0.0842
     30 H7         -1.7804    3.2037   -2.7833 H         1 <0>         0.0808
     31 H8         -3.3150    1.7679   -1.5270 H         1 <0>         0.0953
     32 H9         -4.7189    2.6438   -2.1828 H         1 <0>         0.1041
     33 H10        -5.3387    4.9224   -1.0933 H         1 <0>         0.2122
     34 H11        -2.5374    1.0646    0.3378 H         1 <0>         0.1326
     35 H12        -0.5401   -0.3565    0.5355 H         1 <0>         0.1591
     36 H13         1.9762    2.9429    0.4040 H         1 <0>         0.1611
     37 H14         0.0693    4.4838    0.2113 H         1 <0>         0.1382
     38 H15        -1.4744    3.3758    2.7242 H         1 <0>         0.1277
     39 H16        -0.1606    4.1823    4.6406 H         1 <0>         0.1373
     40 H17        -1.2270    8.2078    3.6961 H         1 <0>         0.1390
     41 H18        -2.5382    7.4175    1.7712 H         1 <0>         0.1383
@<TRIPOS>BOND
     1    1    2 1
     2    1   24 1
     3    1   25 1
     4    1   26 1
     5    2    3 1
     6    3    4 1
     7    3   27 1
     8    3   28 1
     9    4    5 1
    10    4   29 1
    11    4   30 1
    12    5    6 1
    13    5   31 1
    14    5   32 1
    15    6   10 1
    16    6    7 1
    17    7    8 2
    18    7   33 1
    19    8    9 1
    20    9   10 2
    21    9   17 1
    22   10   11 1
    23   11   16 ar
    24   11   12 ar
    25   12   13 ar
    26   12   34 1
    27   13   14 ar
    28   13   35 1
    29   14   15 ar
    30   15   16 ar
    31   15   36 1
    32   16   37 1
    33   17   22 ar
    34   17   18 ar
    35   18   19 ar
    36   18   38 1
    37   19   20 ar
    38   19   39 1
    39   20   21 ar
    40   20   23 1
    41   21   22 ar
    42   21   40 1
    43   22   41 1
@<TRIPOS>MOLECULE
ZINC03815740
   42    44     0     0     0
SMALL
USER_CHARGES

@<TRIPOS>ATOM
      1 C1         -2.3934    1.5612   -6.9412 C.3       1 <0>        -0.1204
      2 S1         -2.0397    2.7859   -5.6507 S.3       1 <0>        -0.2484
      3 C2         -3.0402    2.2385   -4.2401 C.3       1 <0>        -0.0944
      4 C3         -2.8332    3.1968   -3.0655 C.3       1 <0>        -0.1216
      5 C4         -3.6770    2.7351   -1.8757 C.3       1 <0>         0.0923
      6 N1         -3.5714    3.7156   -0.7923 N.pl3     1 <0>        -0.3974
      7 C5         -4.4407    4.7146   -0.5305 C.cat     1 <0>         0.2991
      8 C6         -2.8775    4.8637    0.9597 C.2       1 <0>         0.1109
      9 C7         -2.5684    3.7868    0.1481 C.2       1 <0>         0.1019
     10 C8         -1.3965    2.8976    0.2632 C.ar      1 <0>        -0.0167
     11 C9         -1.5526    1.5078    0.3520 C.ar      1 <0>        -0.1521
     12 C10        -0.4302    0.7154    0.4628 C.ar      1 <0>         0.1170
     13 N2          0.7774    1.2482    0.4759 N.ar      1 <0>        -0.4578
     14 C11         0.9699    2.5512    0.3896 C.ar      1 <0>         0.1185
     15 C12        -0.0957    3.4187    0.2811 C.ar      1 <0>        -0.1315
     16 C13        -2.0887    5.3444    2.1180 C.ar      1 <0>        -0.0817
     17 C14        -1.4192    4.4336    2.9349 C.ar      1 <0>        -0.0460
     18 C15        -0.6824    4.8865    4.0096 C.ar      1 <0>        -0.1463
     19 C16        -0.6151    6.2430    4.2841 C.ar      1 <0>         0.1418
     20 C17        -1.2825    7.1515    3.4782 C.ar      1 <0>        -0.1469
     21 C18        -2.0179    6.7088    2.3983 C.ar      1 <0>        -0.0629
     22 F1          0.1031    6.6813    5.3411 F         1 <0>        -0.1209
     23 H1         -1.8301    1.8085   -7.8410 H         1 <0>         0.1099
     24 H2         -2.1028    0.5706   -6.5915 H         1 <0>         0.0814
     25 H3         -3.4598    1.5686   -7.1666 H         1 <0>         0.0814
     26 H4         -2.7360    1.2336   -3.9471 H         1 <0>         0.0903
     27 H5         -4.0930    2.2316   -4.5222 H         1 <0>         0.0912
     28 H6         -3.1374    4.2017   -3.3585 H         1 <0>         0.0904
     29 H7         -1.7804    3.2037   -2.7833 H         1 <0>         0.0898
     30 H8         -3.3150    1.7679   -1.5270 H         1 <0>         0.1231
     31 H9         -4.7189    2.6438   -2.1828 H         1 <0>         0.1298
     32 H10        -5.3387    4.9224   -1.0933 H         1 <0>         0.2654
     33 H11        -2.5374    1.0646    0.3378 H         1 <0>         0.1406
     34 H12        -0.5401   -0.3565    0.5355 H         1 <0>         0.1703
     35 H13         1.9762    2.9429    0.4040 H         1 <0>         0.1714
     36 H14         0.0693    4.4838    0.2113 H         1 <0>         0.1450
     37 H15        -1.4744    3.3758    2.7242 H         1 <0>         0.1384
     38 H16        -0.1606    4.1823    4.6406 H         1 <0>         0.1520
     39 H17        -1.2270    8.2078    3.6961 H         1 <0>         0.1524
     40 H18        -2.5382    7.4175    1.7712 H         1 <0>         0.1377
     41 N3         -4.0273    5.3940    0.5035 N.pl3     1 <0>        -0.4788
     42 H19        -4.5055    6.2080    0.9073 H         1 <0>         0.4819
@<TRIPOS>BOND
     1    1    2 1
     2    1   23 1
     3    1   24 1
     4    1   25 1
     5    2    3 1
     6    3    4 1
     7    3   26 1
     8    3   27 1
     9    4    5 1
    10    4   28 1
    11    4   29 1
    12    5    6 1
    13    5   30 1
    14    5   31 1
    15    6    9 1
    16    6    7 1
    17    7   32 1
    18    7   41 2
    19    8    9 2
    20    8   16 1
    21    8   41 1
    22    9   10 1
    23   10   15 ar
    24   10   11 ar
    25   11   12 ar
    26   11   33 1
    27   12   13 ar
    28   12   34 1
    29   13   14 ar
    30   14   15 ar
    31   14   35 1
    32   15   36 1
    33   16   21 ar
    34   16   17 ar
    35   17   18 ar
    36   17   37 1
    37   18   19 ar
    38   18   38 1
    39   19   20 ar
    40   19   22 1
    41   20   21 ar
    42   20   39 1
    43   21   40 1
    44   41   42 1
@<TRIPOS>MOLECULE
ZINC03815741
   43    46     0     0     0
SMALL
USER_CHARGES

@<TRIPOS>ATOM
      1 C1         -8.2108    9.3788   -0.5774 C.3       1 <0>        -0.4983
      2 S1         -8.4270    8.2109    0.7937 S.o       1 <0>         1.3307
      3 O1         -8.9870    8.8892    1.9098 O.2       1 <0>        -0.8477
      4 C2         -6.7810    7.8407    1.3019 C.ar      1 <0>        -0.4566
      5 C3         -6.1692    8.6108    2.2753 C.ar      1 <0>        -0.0429
      6 C4         -4.8770    8.3271    2.6796 C.ar      1 <0>        -0.1277
      7 C5         -4.1896    7.2730    2.1137 C.ar      1 <0>        -0.0396
      8 C6         -4.8009    6.4921    1.1319 C.ar      1 <0>        -0.0335
      9 C7         -6.1032    6.7871    0.7247 C.ar      1 <0>        -0.0365
     10 C8         -4.0703    5.3611    0.5213 C.2       1 <0>         0.2389
     11 N1         -2.7995    4.9784    0.8365 N.2       1 <0>        -0.4489
     12 H1         -5.4539    4.6275   -0.8162 H         1 <0>         0.4296
     13 C9         -2.4937    3.8943    0.0449 C.2       1 <0>         0.0604
     14 C10        -3.6117    3.6540   -0.7371 C.2       1 <0>         0.0322
     15 N2         -4.5417    4.5646   -0.4113 N.pl3     1 <0>        -0.5079
     16 C11        -3.7568    2.5799   -1.7475 C.ar      1 <0>        -0.0346
     17 C12        -2.6623    2.1946   -2.5210 C.ar      1 <0>        -0.0616
     18 C13        -2.8012    1.1912   -3.4573 C.ar      1 <0>        -0.1451
     19 C14        -4.0283    0.5729   -3.6366 C.ar      1 <0>         0.1090
     20 C15        -5.1200    0.9558   -2.8742 C.ar      1 <0>        -0.1467
     21 C16        -4.9898    1.9549   -1.9320 C.ar      1 <0>        -0.0839
     22 F1         -4.1606   -0.4061   -4.5582 F         1 <0>        -0.1342
     23 C17        -1.2259    3.1407    0.0297 C.ar      1 <0>         0.0401
     24 C18        -1.2208    1.7390    0.0173 C.ar      1 <0>        -0.1542
     25 C19        -0.0126    1.0758    0.0080 C.ar      1 <0>         0.1015
     26 N3          1.1269    1.7422    0.0007 N.ar      1 <0>        -0.4826
     27 C20         1.1678    3.0615    0.0069 C.ar      1 <0>         0.1013
     28 C21         0.0079    3.8060    0.0215 C.ar      1 <0>        -0.1469
     29 H2         -7.6329    8.9048   -1.3707 H         1 <0>         0.1111
     30 H3         -9.1875    9.6703   -0.9638 H         1 <0>         0.1093
     31 H4         -7.6822   10.2631   -0.2215 H         1 <0>         0.0830
     32 H5         -6.7028    9.4372    2.7211 H         1 <0>         0.1316
     33 H6         -4.4051    8.9322    3.4395 H         1 <0>         0.1348
     34 H7         -3.1808    7.0526    2.4302 H         1 <0>         0.1427
     35 H8         -6.5801    6.1896   -0.0382 H         1 <0>         0.1311
     36 H9         -1.7065    2.6788   -2.3848 H         1 <0>         0.1355
     37 H10        -1.9531    0.8893   -4.0540 H         1 <0>         0.1425
     38 H11        -6.0746    0.4715   -3.0180 H         1 <0>         0.1421
     39 H12        -5.8414    2.2529   -1.3384 H         1 <0>         0.1319
     40 H13        -2.1492    1.1872    0.0191 H         1 <0>         0.1346
     41 H14         0.0021   -0.0041    0.0020 H         1 <0>         0.1583
     42 H15         2.1234    3.5647    0.0002 H         1 <0>         0.1589
     43 H16         0.0490    4.8852    0.0269 H         1 <0>         0.1382
@<TRIPOS>BOND
     1    1    2 1
     2    1   29 1
     3    1   30 1
     4    1   31 1
     5    2    3 2
     6    2    4 1
     7    4    9 ar
     8    4    5 ar
     9    5    6 ar
    10    5   32 1
    11    6    7 ar
    12    6   33 1
    13    7    8 ar
    14    7   34 1
    15    8    9 ar
    16    8   10 1
    17    9   35 1
    18   10   11 2
    19   10   15 1
    20   11   13 1
    21   12   15 1
    22   13   14 2
    23   13   23 1
    24   14   15 1
    25   14   16 1
    26   16   21 ar
    27   16   17 ar
    28   17   18 ar
    29   17   36 1
    30   18   19 ar
    31   18   37 1
    32   19   20 ar
    33   19   22 1
    34   20   21 ar
    35   20   38 1
    36   21   39 1
    37   23   28 ar
    38   23   24 ar
    39   24   25 ar
    40   24   40 1
    41   25   26 ar
    42   25   41 1
    43   26   27 ar
    44   27   28 ar
    45   27   42 1
    46   28   43 1
@<TRIPOS>MOLECULE
ZINC03815741
   44    47     0     0     0
SMALL
USER_CHARGES

@<TRIPOS>ATOM
      1 C1         -8.2108    9.3788   -0.5774 C.3       1 <0>        -0.4983
      2 S1         -8.4270    8.2109    0.7937 S.o       1 <0>         1.3374
      3 O1         -8.9870    8.8892    1.9098 O.2       1 <0>        -0.8310
      4 C2         -6.7810    7.8407    1.3019 C.ar      1 <0>        -0.4542
      5 C3         -6.1692    8.6108    2.2753 C.ar      1 <0>        -0.0049
      6 C4         -4.8770    8.3271    2.6796 C.ar      1 <0>        -0.1160
      7 C5         -4.1896    7.2730    2.1137 C.ar      1 <0>        -0.0420
      8 C6         -4.8009    6.4921    1.1319 C.ar      1 <0>        -0.1065
      9 C7         -6.1032    6.7871    0.7247 C.ar      1 <0>        -0.0002
     10 C8         -4.0703    5.3611    0.5213 C.cat     1 <0>         0.3930
     11 N1         -2.7995    4.9784    0.8365 N.pl3     1 <0>        -0.5077
     12 H1         -2.2020    5.4053    1.5153 H         1 <0>         0.4715
     13 C9         -2.4937    3.8943    0.0449 C.2       1 <0>         0.1156
     14 C10        -3.6152    3.6480   -0.7303 C.2       1 <0>         0.1170
     15 C11        -3.7628    2.5697   -1.7358 C.ar      1 <0>        -0.0841
     16 C12        -2.6697    2.1799   -2.5090 C.ar      1 <0>        -0.0461
     17 C13        -2.8109    1.1725   -3.4408 C.ar      1 <0>        -0.1460
     18 C14        -4.0389    0.5548   -3.6158 C.ar      1 <0>         0.1431
     19 C15        -5.1292    0.9422   -2.8536 C.ar      1 <0>        -0.1463
     20 C16        -4.9967    1.9453   -1.9159 C.ar      1 <0>        -0.0623
     21 F1         -4.1735   -0.4281   -4.5329 F         1 <0>        -0.1205
     22 C17        -1.2259    3.1407    0.0297 C.ar      1 <0>        -0.0211
     23 C18        -1.2208    1.7390    0.0173 C.ar      1 <0>        -0.1317
     24 C19        -0.0126    1.0758    0.0080 C.ar      1 <0>         0.1170
     25 N2          1.1269    1.7422    0.0007 N.ar      1 <0>        -0.4575
     26 C20         1.1678    3.0615    0.0069 C.ar      1 <0>         0.1171
     27 C21         0.0079    3.8060    0.0215 C.ar      1 <0>        -0.1486
     28 H2         -7.6329    8.9048   -1.3707 H         1 <0>         0.1134
     29 H3         -9.1875    9.6703   -0.9638 H         1 <0>         0.1170
     30 H4         -7.6822   10.2631   -0.2215 H         1 <0>         0.0870
     31 H5         -6.7028    9.4372    2.7211 H         1 <0>         0.1473
     32 H6         -4.4051    8.9322    3.4395 H         1 <0>         0.1503
     33 H7         -3.1808    7.0526    2.4302 H         1 <0>         0.1358
     34 H8         -6.5801    6.1896   -0.0382 H         1 <0>         0.1445
     35 H9         -1.7132    2.6636   -2.3762 H         1 <0>         0.1399
     36 H10        -1.9639    0.8671   -4.0373 H         1 <0>         0.1527
     37 H11        -6.0845    0.4583   -2.9940 H         1 <0>         0.1534
     38 H12        -5.8472    2.2468   -1.3225 H         1 <0>         0.1390
     39 H13        -2.1492    1.1872    0.0191 H         1 <0>         0.1472
     40 H14         0.0021   -0.0041    0.0020 H         1 <0>         0.1724
     41 H15         2.1234    3.5647    0.0002 H         1 <0>         0.1713
     42 H16         0.0490    4.8852    0.0269 H         1 <0>         0.1419
     43 N3         -4.5444    4.5611   -0.4075 N.pl3     1 <0>        -0.4784
     44 H17        -5.4815    4.6249   -0.8223 H         1 <0>         0.4784
@<TRIPOS>BOND
     1    1    2 1
     2    1   28 1
     3    1   29 1
     4    1   30 1
     5    2    3 2
     6    2    4 1
     7    4    9 ar
     8    4    5 ar
     9    5    6 ar
    10    5   31 1
    11    6    7 ar
    12    6   32 1
    13    7    8 ar
    14    7   33 1
    15    8    9 ar
    16    8   10 1
    17    9   34 1
    18   10   11 1
    19   10   43 2
    20   11   12 1
    21   11   13 1
    22   13   14 2
    23   13   22 1
    24   14   15 1
    25   14   43 1
    26   15   20 ar
    27   15   16 ar
    28   16   17 ar
    29   16   35 1
    30   17   18 ar
    31   17   36 1
    32   18   19 ar
    33   18   21 1
    34   19   20 ar
    35   19   37 1
    36   20   38 1
    37   22   27 ar
    38   22   23 ar
    39   23   24 ar
    40   23   39 1
    41   24   25 ar
    42   24   40 1
    43   25   26 ar
    44   26   27 ar
    45   26   41 1
    46   27   42 1
    47   43   44 1
@<TRIPOS>MOLECULE
ZINC03815741
   43    46     0     0     0
SMALL
USER_CHARGES

@<TRIPOS>ATOM
      1 C1         -8.2108    9.3788   -0.5774 C.3       1 <0>        -0.4983
      2 S1         -8.4270    8.2109    0.7937 S.o       1 <0>         1.3307
      3 O1         -8.9870    8.8892    1.9098 O.2       1 <0>        -0.8477
      4 C2         -6.7810    7.8407    1.3019 C.ar      1 <0>        -0.4566
      5 C3         -6.1692    8.6108    2.2753 C.ar      1 <0>        -0.0429
      6 C4         -4.8770    8.3271    2.6796 C.ar      1 <0>        -0.1277
      7 C5         -4.1896    7.2730    2.1137 C.ar      1 <0>        -0.0396
      8 C6         -4.8009    6.4921    1.1319 C.ar      1 <0>        -0.0335
      9 C7         -6.1032    6.7871    0.7247 C.ar      1 <0>        -0.0365
     10 C8         -4.0703    5.3611    0.5213 C.2       1 <0>         0.2389
     11 N1         -2.7995    4.9784    0.8365 N.2       1 <0>        -0.4489
     12 H1         -5.4539    4.6275   -0.8162 H         1 <0>         0.4296
     13 C9         -2.4937    3.8943    0.0449 C.2       1 <0>         0.0604
     14 C10        -3.6117    3.6540   -0.7371 C.2       1 <0>         0.0322
     15 N2         -4.5417    4.5646   -0.4113 N.pl3     1 <0>        -0.5079
     16 C11        -3.7568    2.5799   -1.7475 C.ar      1 <0>        -0.0346
     17 C12        -2.6623    2.1946   -2.5210 C.ar      1 <0>        -0.0616
     18 C13        -2.8012    1.1912   -3.4573 C.ar      1 <0>        -0.1451
     19 C14        -4.0283    0.5729   -3.6366 C.ar      1 <0>         0.1090
     20 C15        -5.1200    0.9558   -2.8742 C.ar      1 <0>        -0.1467
     21 C16        -4.9898    1.9549   -1.9320 C.ar      1 <0>        -0.0839
     22 F1         -4.1606   -0.4061   -4.5582 F         1 <0>        -0.1342
     23 C17        -1.2259    3.1407    0.0297 C.ar      1 <0>         0.0401
     24 C18        -1.2208    1.7390    0.0173 C.ar      1 <0>        -0.1542
     25 C19        -0.0126    1.0758    0.0080 C.ar      1 <0>         0.1015
     26 N3          1.1269    1.7422    0.0007 N.ar      1 <0>        -0.4826
     27 C20         1.1678    3.0615    0.0069 C.ar      1 <0>         0.1013
     28 C21         0.0079    3.8060    0.0215 C.ar      1 <0>        -0.1469
     29 H2         -7.6329    8.9048   -1.3707 H         1 <0>         0.1111
     30 H3         -9.1875    9.6703   -0.9638 H         1 <0>         0.1093
     31 H4         -7.6822   10.2631   -0.2215 H         1 <0>         0.0830
     32 H5         -6.7028    9.4372    2.7211 H         1 <0>         0.1316
     33 H6         -4.4051    8.9322    3.4395 H         1 <0>         0.1348
     34 H7         -3.1808    7.0526    2.4302 H         1 <0>         0.1427
     35 H8         -6.5801    6.1896   -0.0382 H         1 <0>         0.1311
     36 H9         -1.7065    2.6788   -2.3848 H         1 <0>         0.1355
     37 H10        -1.9531    0.8893   -4.0540 H         1 <0>         0.1425
     38 H11        -6.0746    0.4715   -3.0180 H         1 <0>         0.1421
     39 H12        -5.8414    2.2529   -1.3384 H         1 <0>         0.1319
     40 H13        -2.1492    1.1872    0.0191 H         1 <0>         0.1346
     41 H14         0.0021   -0.0041    0.0020 H         1 <0>         0.1583
     42 H15         2.1234    3.5647    0.0002 H         1 <0>         0.1589
     43 H16         0.0490    4.8852    0.0269 H         1 <0>         0.1382
@<TRIPOS>BOND
     1    1    2 1
     2    1   29 1
     3    1   30 1
     4    1   31 1
     5    2    3 2
     6    2    4 1
     7    4    9 ar
     8    4    5 ar
     9    5    6 ar
    10    5   32 1
    11    6    7 ar
    12    6   33 1
    13    7    8 ar
    14    7   34 1
    15    8    9 ar
    16    8   10 1
    17    9   35 1
    18   10   11 2
    19   10   15 1
    20   11   13 1
    21   12   15 1
    22   13   14 2
    23   13   23 1
    24   14   15 1
    25   14   16 1
    26   16   21 ar
    27   16   17 ar
    28   17   18 ar
    29   17   36 1
    30   18   19 ar
    31   18   37 1
    32   19   20 ar
    33   19   22 1
    34   20   21 ar
    35   20   38 1
    36   21   39 1
    37   23   28 ar
    38   23   24 ar
    39   24   25 ar
    40   24   40 1
    41   25   26 ar
    42   25   41 1
    43   26   27 ar
    44   27   28 ar
    45   27   42 1
    46   28   43 1
@<TRIPOS>MOLECULE
ZINC03815742
   41    44     0     0     0
SMALL
USER_CHARGES

@<TRIPOS>ATOM
      1 C1         -6.1690    8.6081    2.2819 C.ar      1 <0>        -0.1052
      2 C2         -6.7811    7.8388    1.3085 C.ar      1 <0>        -0.1145
      3 C3         -6.1051    6.7825    0.7335 C.ar      1 <0>        -0.1114
      4 C4         -4.8007    6.4911    1.1355 C.ar      1 <0>        -0.0243
      5 C5         -4.1909    7.2679    2.1218 C.ar      1 <0>        -0.0731
      6 C6         -4.8761    8.3246    2.6849 C.ar      1 <0>        -0.1159
      7 C7         -4.0703    5.3606    0.5235 C.2       1 <0>         0.2466
      8 N1         -2.7994    4.9776    0.8380 N.2       1 <0>        -0.4499
      9 H1         -5.4542    4.6283   -0.8144 H         1 <0>         0.4298
     10 C8         -2.4939    3.8943    0.0458 C.2       1 <0>         0.0694
     11 C9         -3.6119    3.6548   -0.7365 C.2       1 <0>         0.0146
     12 N2         -4.5420    4.5651   -0.4097 N.pl3     1 <0>        -0.5067
     13 C10        -3.7573    2.5811   -1.7474 C.ar      1 <0>         0.0150
     14 C11        -2.6632    2.1956   -2.5214 C.ar      1 <0>        -0.0944
     15 C12        -2.8035    1.1911   -3.4571 C.ar      1 <0>        -0.0600
     16 C13        -4.0290    0.5749   -3.6361 C.ar      1 <0>        -0.1781
     17 C14        -5.1194    0.9570   -2.8752 C.ar      1 <0>        -0.0612
     18 C15        -4.9901    1.9563   -1.9323 C.ar      1 <0>        -0.1175
     19 C16        -4.1771   -0.5167   -4.6644 C.3       1 <0>         0.5079
     20 F1         -4.5422    0.0457   -5.8923 F         1 <0>        -0.1749
     21 F2         -2.9606   -1.1933   -4.8047 F         1 <0>        -0.1743
     22 F3         -5.1658   -1.4159   -4.2509 F         1 <0>        -0.1755
     23 C17        -1.2260    3.1407    0.0297 C.ar      1 <0>         0.0379
     24 C18        -1.2209    1.7391    0.0173 C.ar      1 <0>        -0.1545
     25 C19        -0.0126    1.0758    0.0080 C.ar      1 <0>         0.1022
     26 N3          1.1268    1.7422    0.0007 N.ar      1 <0>        -0.4815
     27 C20         1.1677    3.0615    0.0069 C.ar      1 <0>         0.1019
     28 C21         0.0077    3.8059    0.0215 C.ar      1 <0>        -0.1455
     29 H2         -6.7025    9.4339    2.7289 H         1 <0>         0.1285
     30 H3         -7.7905    8.0653    0.9983 H         1 <0>         0.1298
     31 H4         -6.5841    6.1827   -0.0263 H         1 <0>         0.1175
     32 H5         -3.1834    7.0448    2.4404 H         1 <0>         0.1384
     33 H6         -4.4040    8.9290    3.4453 H         1 <0>         0.1317
     34 H7         -1.7072    2.6793   -2.3859 H         1 <0>         0.1382
     35 H8         -1.9558    0.8886   -4.0540 H         1 <0>         0.1432
     36 H9         -6.0736    0.4721   -3.0191 H         1 <0>         0.1420
     37 H10        -5.8421    2.2540   -1.3391 H         1 <0>         0.1327
     38 H11        -2.1493    1.1873    0.0191 H         1 <0>         0.1337
     39 H12         0.0021   -0.0041    0.0020 H         1 <0>         0.1588
     40 H13         2.1233    3.5647    0.0002 H         1 <0>         0.1597
     41 H14         0.0488    4.8851    0.0269 H         1 <0>         0.1389
@<TRIPOS>BOND
     1    1    6 ar
     2    1    2 ar
     3    1   29 1
     4    2    3 ar
     5    2   30 1
     6    3    4 ar
     7    3   31 1
     8    4    5 ar
     9    4    7 1
    10    5    6 ar
    11    5   32 1
    12    6   33 1
    13    7    8 2
    14    7   12 1
    15    8   10 1
    16    9   12 1
    17   10   11 2
    18   10   23 1
    19   11   12 1
    20   11   13 1
    21   13   18 ar
    22   13   14 ar
    23   14   15 ar
    24   14   34 1
    25   15   16 ar
    26   15   35 1
    27   16   17 ar
    28   16   19 1
    29   17   18 ar
    30   17   36 1
    31   18   37 1
    32   19   20 1
    33   19   21 1
    34   19   22 1
    35   23   28 ar
    36   23   24 ar
    37   24   25 ar
    38   24   38 1
    39   25   26 ar
    40   25   39 1
    41   26   27 ar
    42   27   28 ar
    43   27   40 1
    44   28   41 1
@<TRIPOS>MOLECULE
ZINC03815742
   42    45     0     0     0
SMALL
USER_CHARGES

@<TRIPOS>ATOM
      1 C1         -6.1690    8.6081    2.2819 C.ar      1 <0>        -0.0620
      2 C2         -6.7811    7.8388    1.3085 C.ar      1 <0>        -0.1054
      3 C3         -6.1051    6.7825    0.7335 C.ar      1 <0>        -0.0739
      4 C4         -4.8007    6.4911    1.1355 C.ar      1 <0>        -0.0971
      5 C5         -4.1909    7.2679    2.1218 C.ar      1 <0>        -0.0713
      6 C6         -4.8761    8.3246    2.6849 C.ar      1 <0>        -0.1060
      7 C7         -4.0703    5.3606    0.5235 C.cat     1 <0>         0.3990
      8 N1         -2.7994    4.9776    0.8380 N.pl3     1 <0>        -0.5093
      9 H1         -2.2017    5.4040    1.5169 H         1 <0>         0.4724
     10 C8         -2.4939    3.8943    0.0458 C.2       1 <0>         0.1252
     11 C9         -3.6156    3.6484   -0.7292 C.2       1 <0>         0.1006
     12 C10        -3.7637    2.5702   -1.7348 C.ar      1 <0>        -0.0335
     13 C11        -2.6712    2.1798   -2.5085 C.ar      1 <0>        -0.0795
     14 C12        -2.8139    1.1711   -3.4393 C.ar      1 <0>        -0.0589
     15 C13        -4.0404    0.5555   -3.6137 C.ar      1 <0>        -0.1479
     16 C14        -5.1293    0.9424   -2.8531 C.ar      1 <0>        -0.0593
     17 C15        -4.9975    1.9459   -1.9151 C.ar      1 <0>        -0.0963
     18 C16        -4.1912   -0.5408   -4.6367 C.3       1 <0>         0.5047
     19 F1         -4.5574    0.0163   -5.8667 F         1 <0>        -0.1689
     20 F2         -2.9757   -1.2194   -4.7755 F         1 <0>        -0.1696
     21 F3         -5.1804   -1.4369   -4.2176 F         1 <0>        -0.1702
     22 C17        -1.2260    3.1407    0.0297 C.ar      1 <0>        -0.0236
     23 C18        -1.2209    1.7391    0.0173 C.ar      1 <0>        -0.1322
     24 C19        -0.0126    1.0758    0.0080 C.ar      1 <0>         0.1179
     25 N2          1.1268    1.7422    0.0007 N.ar      1 <0>        -0.4563
     26 C20         1.1677    3.0615    0.0069 C.ar      1 <0>         0.1178
     27 C21         0.0077    3.8059    0.0215 C.ar      1 <0>        -0.1471
     28 H2         -6.7025    9.4339    2.7289 H         1 <0>         0.1461
     29 H3         -7.7905    8.0653    0.9983 H         1 <0>         0.1481
     30 H4         -6.5841    6.1827   -0.0263 H         1 <0>         0.1319
     31 H5         -3.1834    7.0448    2.4404 H         1 <0>         0.1320
     32 H6         -4.4040    8.9290    3.4453 H         1 <0>         0.1477
     33 H7         -1.7144    2.6630   -2.3766 H         1 <0>         0.1430
     34 H8         -1.9674    0.8648   -4.0360 H         1 <0>         0.1535
     35 H9         -6.0842    0.4579   -2.9934 H         1 <0>         0.1533
     36 H10        -5.8483    2.2474   -1.3221 H         1 <0>         0.1401
     37 H11        -2.1493    1.1873    0.0191 H         1 <0>         0.1462
     38 H12         0.0021   -0.0041    0.0020 H         1 <0>         0.1730
     39 H13         2.1233    3.5647    0.0002 H         1 <0>         0.1722
     40 H14         0.0488    4.8851    0.0269 H         1 <0>         0.1428
     41 N3         -4.5448    4.5613   -0.4055 N.pl3     1 <0>        -0.4778
     42 H15        -5.4820    4.6254   -0.8200 H         1 <0>         0.4787
@<TRIPOS>BOND
     1    1    6 ar
     2    1    2 ar
     3    1   28 1
     4    2    3 ar
     5    2   29 1
     6    3    4 ar
     7    3   30 1
     8    4    5 ar
     9    4    7 1
    10    5    6 ar
    11    5   31 1
    12    6   32 1
    13    7    8 1
    14    7   41 2
    15    8    9 1
    16    8   10 1
    17   10   11 2
    18   10   22 1
    19   11   12 1
    20   11   41 1
    21   12   17 ar
    22   12   13 ar
    23   13   14 ar
    24   13   33 1
    25   14   15 ar
    26   14   34 1
    27   15   16 ar
    28   15   18 1
    29   16   17 ar
    30   16   35 1
    31   17   36 1
    32   18   19 1
    33   18   20 1
    34   18   21 1
    35   22   27 ar
    36   22   23 ar
    37   23   24 ar
    38   23   37 1
    39   24   25 ar
    40   24   38 1
    41   25   26 ar
    42   26   27 ar
    43   26   39 1
    44   27   40 1
    45   41   42 1
@<TRIPOS>MOLECULE
ZINC03815742
   41    44     0     0     0
SMALL
USER_CHARGES

@<TRIPOS>ATOM
      1 C1         -6.1690    8.6081    2.2819 C.ar      1 <0>        -0.1052
      2 C2         -6.7811    7.8388    1.3085 C.ar      1 <0>        -0.1145
      3 C3         -6.1051    6.7825    0.7335 C.ar      1 <0>        -0.1114
      4 C4         -4.8007    6.4911    1.1355 C.ar      1 <0>        -0.0243
      5 C5         -4.1909    7.2679    2.1218 C.ar      1 <0>        -0.0731
      6 C6         -4.8761    8.3246    2.6849 C.ar      1 <0>        -0.1159
      7 C7         -4.0703    5.3606    0.5235 C.2       1 <0>         0.2466
      8 N1         -2.7994    4.9776    0.8380 N.2       1 <0>        -0.4499
      9 H1         -5.4542    4.6283   -0.8144 H         1 <0>         0.4298
     10 C8         -2.4939    3.8943    0.0458 C.2       1 <0>         0.0694
     11 C9         -3.6119    3.6548   -0.7365 C.2       1 <0>         0.0146
     12 N2         -4.5420    4.5651   -0.4097 N.pl3     1 <0>        -0.5067
     13 C10        -3.7573    2.5811   -1.7474 C.ar      1 <0>         0.0150
     14 C11        -2.6632    2.1956   -2.5214 C.ar      1 <0>        -0.0944
     15 C12        -2.8035    1.1911   -3.4571 C.ar      1 <0>        -0.0600
     16 C13        -4.0290    0.5749   -3.6361 C.ar      1 <0>        -0.1781
     17 C14        -5.1194    0.9570   -2.8752 C.ar      1 <0>        -0.0612
     18 C15        -4.9901    1.9563   -1.9323 C.ar      1 <0>        -0.1175
     19 C16        -4.1771   -0.5167   -4.6644 C.3       1 <0>         0.5079
     20 F1         -4.5422    0.0457   -5.8923 F         1 <0>        -0.1749
     21 F2         -2.9606   -1.1933   -4.8047 F         1 <0>        -0.1743
     22 F3         -5.1658   -1.4159   -4.2509 F         1 <0>        -0.1755
     23 C17        -1.2260    3.1407    0.0297 C.ar      1 <0>         0.0379
     24 C18        -1.2209    1.7391    0.0173 C.ar      1 <0>        -0.1545
     25 C19        -0.0126    1.0758    0.0080 C.ar      1 <0>         0.1022
     26 N3          1.1268    1.7422    0.0007 N.ar      1 <0>        -0.4815
     27 C20         1.1677    3.0615    0.0069 C.ar      1 <0>         0.1019
     28 C21         0.0077    3.8059    0.0215 C.ar      1 <0>        -0.1455
     29 H2         -6.7025    9.4339    2.7289 H         1 <0>         0.1285
     30 H3         -7.7905    8.0653    0.9983 H         1 <0>         0.1298
     31 H4         -6.5841    6.1827   -0.0263 H         1 <0>         0.1175
     32 H5         -3.1834    7.0448    2.4404 H         1 <0>         0.1384
     33 H6         -4.4040    8.9290    3.4453 H         1 <0>         0.1317
     34 H7         -1.7072    2.6793   -2.3859 H         1 <0>         0.1382
     35 H8         -1.9558    0.8886   -4.0540 H         1 <0>         0.1432
     36 H9         -6.0736    0.4721   -3.0191 H         1 <0>         0.1420
     37 H10        -5.8421    2.2540   -1.3391 H         1 <0>         0.1327
     38 H11        -2.1493    1.1873    0.0191 H         1 <0>         0.1337
     39 H12         0.0021   -0.0041    0.0020 H         1 <0>         0.1588
     40 H13         2.1233    3.5647    0.0002 H         1 <0>         0.1597
     41 H14         0.0488    4.8851    0.0269 H         1 <0>         0.1389
@<TRIPOS>BOND
     1    1    6 ar
     2    1    2 ar
     3    1   29 1
     4    2    3 ar
     5    2   30 1
     6    3    4 ar
     7    3   31 1
     8    4    5 ar
     9    4    7 1
    10    5    6 ar
    11    5   32 1
    12    6   33 1
    13    7    8 2
    14    7   12 1
    15    8   10 1
    16    9   12 1
    17   10   11 2
    18   10   23 1
    19   11   12 1
    20   11   13 1
    21   13   18 ar
    22   13   14 ar
    23   14   15 ar
    24   14   34 1
    25   15   16 ar
    26   15   35 1
    27   16   17 ar
    28   16   19 1
    29   17   18 ar
    30   17   36 1
    31   18   37 1
    32   19   20 1
    33   19   21 1
    34   19   22 1
    35   23   28 ar
    36   23   24 ar
    37   24   25 ar
    38   24   38 1
    39   25   26 ar
    40   25   39 1
    41   26   27 ar
    42   27   28 ar
    43   27   40 1
    44   28   41 1
@<TRIPOS>MOLECULE
ZINC03815744
   51    54     0     0     0
SMALL
USER_CHARGES

@<TRIPOS>ATOM
      1 C1          0.1160    3.9894    0.2753 C.ar      1 <0>        -0.1041
      2 C2          1.2890    3.2707    0.1636 C.ar      1 <0>        -0.0991
      3 C3          1.2543    1.8768    0.1815 C.ar      1 <0>        -0.0057
      4 C4          0.0328    1.2167    0.3124 C.ar      1 <0>        -0.0799
      5 C5         -1.1349    1.9461    0.4176 C.ar      1 <0>        -0.0333
      6 C6         -1.0929    3.3302    0.4044 C.ar      1 <0>        -0.1002
      7 Cl1        -2.6575    1.1267    0.5733 Cl        1 <0>        -0.0582
      8 C7          2.5103    1.1002    0.0625 C.2       1 <0>         0.0875
      9 C8          3.6159    1.4413   -0.6959 C.2       1 <0>         0.0107
     10 N1          4.5367    0.4365   -0.5044 N.pl3     1 <0>        -0.4550
     11 C9          3.9839   -0.4611    0.3391 C.2       1 <0>         0.2058
     12 N2          2.7885   -0.0643    0.6766 N.2       1 <0>        -0.4669
     13 C10         5.8705    0.3558   -1.1049 C.3       1 <0>         0.1111
     14 C11         6.8903    1.0124   -0.1722 C.3       1 <0>        -0.1749
     15 C12         8.2617    1.0339   -0.8503 C.3       1 <0>        -0.0014
     16 C13         8.9335    3.0882    0.2432 C.3       1 <0>        -0.0448
     17 C14         9.9403    3.6901    1.2269 C.3       1 <0>         0.0352
     18 O1         11.2656    3.4864    0.7293 O.3       1 <0>        -0.3547
     19 C15        11.5988    2.1106    0.5254 C.3       1 <0>         0.0340
     20 C16        10.6087    1.4927   -0.4654 C.3       1 <0>        -0.0385
     21 C17         3.7758    2.6411   -1.5402 C.ar      1 <0>         0.0312
     22 C18         2.8670    2.9247   -2.5684 C.ar      1 <0>        -0.1410
     23 C19         3.0522    4.0590   -3.3294 C.ar      1 <0>         0.1173
     24 N3          4.0729    4.8658   -3.1067 N.ar      1 <0>        -0.4745
     25 C20         4.9548    4.6337   -2.1525 C.ar      1 <0>         0.1051
     26 C21         4.8440    3.5257   -1.3400 C.ar      1 <0>        -0.1784
     27 H1          0.1422    5.0690    0.2615 H         1 <0>         0.1363
     28 H2          2.2322    3.7871    0.0629 H         1 <0>         0.1218
     29 H3         -0.0002    0.1373    0.3269 H         1 <0>         0.1392
     30 H4         -2.0081    3.8970    0.4908 H         1 <0>         0.1384
     31 H5          4.4601   -1.3670    0.6841 H         1 <0>         0.2144
     32 H6          6.1378   -0.6898   -1.2571 H         1 <0>         0.1117
     33 H7          5.8690    0.8738   -2.0640 H         1 <0>         0.1029
     34 H8          6.5774    2.0332    0.0473 H         1 <0>         0.0953
     35 H9          6.9527    0.4439    0.7557 H         1 <0>         0.1005
     36 H10         8.5745    0.0131   -1.0698 H         1 <0>         0.1384
     37 H11         8.1993    1.6024   -1.7782 H         1 <0>         0.1373
     38 H12         8.9998    3.6110   -0.7110 H         1 <0>         0.1433
     39 H13         7.9257    3.1905    0.6456 H         1 <0>         0.1381
     40 H14         9.8369    3.2036    2.1968 H         1 <0>         0.0816
     41 H15         9.7519    4.7584    1.3337 H         1 <0>         0.1432
     42 H16        11.5436    1.5782    1.4749 H         1 <0>         0.0818
     43 H17        12.6095    2.0365    0.1241 H         1 <0>         0.1435
     44 H18        10.8238    0.4303   -0.5802 H         1 <0>         0.1427
     45 H19        10.7018    1.9900   -1.4309 H         1 <0>         0.1420
     46 H20         2.0321    2.2667   -2.7593 H         1 <0>         0.1418
     47 H21         2.3550    4.2886   -4.1216 H         1 <0>         0.1661
     48 H22         5.7747    5.3213   -2.0064 H         1 <0>         0.1573
     49 H23         5.5691    3.3423   -0.5609 H         1 <0>         0.1232
     50 N4          9.2405    1.6526    0.0697 N.4       1 <0>        -0.3956
     51 H24         9.1820    1.1858    0.9823 H         1 <0>         0.4278
@<TRIPOS>BOND
     1    1    6 ar
     2    1    2 ar
     3    1   27 1
     4    2    3 ar
     5    2   28 1
     6    3    4 ar
     7    3    8 1
     8    4    5 ar
     9    4   29 1
    10    5    6 ar
    11    5    7 1
    12    6   30 1
    13    8   12 1
    14    8    9 2
    15    9   10 1
    16    9   21 1
    17   10   11 1
    18   10   13 1
    19   11   12 2
    20   11   31 1
    21   13   14 1
    22   13   32 1
    23   13   33 1
    24   14   15 1
    25   14   34 1
    26   14   35 1
    27   15   36 1
    28   15   37 1
    29   15   50 1
    30   16   17 1
    31   16   38 1
    32   16   39 1
    33   16   50 1
    34   17   18 1
    35   17   40 1
    36   17   41 1
    37   18   19 1
    38   19   20 1
    39   19   42 1
    40   19   43 1
    41   20   44 1
    42   20   45 1
    43   20   50 1
    44   21   26 ar
    45   21   22 ar
    46   22   23 ar
    47   22   46 1
    48   23   24 ar
    49   23   47 1
    50   24   25 ar
    51   25   26 ar
    52   25   48 1
    53   26   49 1
    54   50   51 1
@<TRIPOS>MOLECULE
ZINC03815744
   52    55     0     0     0
SMALL
USER_CHARGES

@<TRIPOS>ATOM
      1 C1          0.1160    3.9894    0.2753 C.ar      1 <0>        -0.0941
      2 C2          1.2890    3.2707    0.1636 C.ar      1 <0>        -0.0742
      3 C3          1.2543    1.8768    0.1815 C.ar      1 <0>        -0.0663
      4 C4          0.0328    1.2167    0.3124 C.ar      1 <0>        -0.0869
      5 C5         -1.1349    1.9461    0.4176 C.ar      1 <0>        -0.0306
      6 C6         -1.0929    3.3302    0.4044 C.ar      1 <0>        -0.0686
      7 Cl1        -2.6575    1.1267    0.5733 Cl        1 <0>        -0.0314
      8 C7          2.5103    1.1002    0.0625 C.2       1 <0>         0.1244
      9 C8          3.6159    1.4413   -0.6959 C.2       1 <0>         0.0973
     10 N1          4.5367    0.4365   -0.5044 N.pl3     1 <0>        -0.4082
     11 C9          3.9839   -0.4611    0.3391 C.cat     1 <0>         0.3021
     12 C10         5.8705    0.3558   -1.1049 C.3       1 <0>         0.0988
     13 C11         6.8903    1.0124   -0.1722 C.3       1 <0>        -0.1810
     14 C12         8.2617    1.0339   -0.8503 C.3       1 <0>        -0.0019
     15 C13         8.9335    3.0882    0.2432 C.3       1 <0>        -0.0454
     16 C14         9.9403    3.6901    1.2269 C.3       1 <0>         0.0340
     17 O1         11.2656    3.4864    0.7293 O.3       1 <0>        -0.3508
     18 C15        11.5988    2.1106    0.5254 C.3       1 <0>         0.0329
     19 C16        10.6087    1.4927   -0.4654 C.3       1 <0>        -0.0388
     20 C17         3.7758    2.6411   -1.5402 C.ar      1 <0>        -0.0170
     21 C18         2.8670    2.9247   -2.5684 C.ar      1 <0>        -0.1266
     22 C19         3.0522    4.0590   -3.3294 C.ar      1 <0>         0.1279
     23 N2          4.0729    4.8658   -3.1067 N.ar      1 <0>        -0.4529
     24 C20         4.9548    4.6337   -2.1525 C.ar      1 <0>         0.1159
     25 C21         4.8440    3.5257   -1.3400 C.ar      1 <0>        -0.1634
     26 H1          0.1422    5.0690    0.2615 H         1 <0>         0.1508
     27 H2          2.2322    3.7871    0.0629 H         1 <0>         0.1327
     28 H3         -0.0002    0.1373    0.3269 H         1 <0>         0.1383
     29 H4         -2.0081    3.8970    0.4908 H         1 <0>         0.1524
     30 H5          4.4601   -1.3670    0.6841 H         1 <0>         0.2675
     31 H6          6.1378   -0.6898   -1.2571 H         1 <0>         0.1384
     32 H7          5.8690    0.8738   -2.0640 H         1 <0>         0.1317
     33 H8          6.5774    2.0332    0.0473 H         1 <0>         0.1016
     34 H9          6.9527    0.4439    0.7557 H         1 <0>         0.1083
     35 H10         8.5745    0.0131   -1.0698 H         1 <0>         0.1438
     36 H11         8.1993    1.6024   -1.7782 H         1 <0>         0.1424
     37 H12         8.9998    3.6110   -0.7110 H         1 <0>         0.1456
     38 H13         7.9257    3.1905    0.6456 H         1 <0>         0.1344
     39 H14         9.8369    3.2036    2.1968 H         1 <0>         0.0821
     40 H15         9.7519    4.7584    1.3337 H         1 <0>         0.1450
     41 H16        11.5436    1.5782    1.4749 H         1 <0>         0.0835
     42 H17        12.6095    2.0365    0.1241 H         1 <0>         0.1473
     43 H18        10.8238    0.4303   -0.5802 H         1 <0>         0.1453
     44 H19        10.7018    1.9900   -1.4309 H         1 <0>         0.1449
     45 H20         2.0321    2.2667   -2.7593 H         1 <0>         0.1487
     46 H21         2.3550    4.2886   -4.1216 H         1 <0>         0.1765
     47 H22         5.7747    5.3213   -2.0064 H         1 <0>         0.1685
     48 H23         5.5691    3.3423   -0.5609 H         1 <0>         0.1303
     49 N3          9.2405    1.6526    0.0697 N.4       1 <0>        -0.3961
     50 H24         9.1820    1.1858    0.9823 H         1 <0>         0.4283
     51 N4          2.7882   -0.0646    0.6769 N.pl3     1 <0>        -0.4742
     52 H25         2.1562   -0.5641    1.3136 H         1 <0>         0.4869
@<TRIPOS>BOND
     1    1    6 ar
     2    1    2 ar
     3    1   26 1
     4    2    3 ar
     5    2   27 1
     6    3    4 ar
     7    3    8 1
     8    4    5 ar
     9    4   28 1
    10    5    6 ar
    11    5    7 1
    12    6   29 1
    13    8    9 2
    14    8   51 1
    15    9   10 1
    16    9   20 1
    17   10   11 1
    18   10   12 1
    19   11   30 1
    20   11   51 2
    21   12   13 1
    22   12   31 1
    23   12   32 1
    24   13   14 1
    25   13   33 1
    26   13   34 1
    27   14   35 1
    28   14   36 1
    29   14   49 1
    30   15   16 1
    31   15   37 1
    32   15   38 1
    33   15   49 1
    34   16   17 1
    35   16   39 1
    36   16   40 1
    37   17   18 1
    38   18   19 1
    39   18   41 1
    40   18   42 1
    41   19   43 1
    42   19   44 1
    43   19   49 1
    44   20   25 ar
    45   20   21 ar
    46   21   22 ar
    47   21   45 1
    48   22   23 ar
    49   22   46 1
    50   23   24 ar
    51   24   25 ar
    52   24   47 1
    53   25   48 1
    54   49   50 1
    55   51   52 1
@<TRIPOS>MOLECULE
ZINC03815745
   50    53     0     0     0
SMALL
USER_CHARGES

@<TRIPOS>ATOM
      1 C1         -1.7159    1.5250    2.0068 C.ar      1 <0>        -0.0407
      2 C2         -1.9693    2.7201    2.6474 C.ar      1 <0>        -0.1582
      3 C3         -3.2197    3.3094    2.5502 C.ar      1 <0>         0.1148
      4 C4         -4.2198    2.7042    1.8061 C.ar      1 <0>        -0.1562
      5 C5         -3.9748    1.5112    1.1584 C.ar      1 <0>        -0.0533
      6 C6         -2.7178    0.9144    1.2528 C.ar      1 <0>        -0.0300
      7 C7         -2.4496   -0.3670    0.5595 C.2       1 <0>         0.1329
      8 C8         -1.2537   -0.7491   -0.0241 C.2       1 <0>        -0.0097
      9 N1         -1.4680   -2.0051   -0.5484 N.pl3     1 <0>        -0.4539
     10 C9         -2.7435   -2.3447   -0.2706 C.2       1 <0>         0.2226
     11 N2         -3.3225   -1.3742    0.3811 N.2       1 <0>        -0.4731
     12 C10        -0.4900   -2.8223   -1.2710 C.3       1 <0>         0.1045
     13 C11         0.2430   -3.7325   -0.2836 C.3       1 <0>        -0.1802
     14 C12         1.3542   -4.4883   -1.0150 C.3       1 <0>        -0.0032
     15 C13         2.7842   -4.5726    0.9382 C.3       1 <0>        -0.0460
     16 C14         3.4522   -5.5199    1.9383 C.3       1 <0>         0.0353
     17 O1          4.3110   -6.4207    1.2336 O.3       1 <0>        -0.3546
     18 C15         3.6363   -7.2062    0.2472 C.3       1 <0>         0.0337
     19 C16         2.9702   -6.2760   -0.7701 C.3       1 <0>        -0.0384
     20 C17        -0.0054    0.0325   -0.0791 C.ar      1 <0>         0.2602
     21 C18         1.2366   -0.6120   -0.1652 C.ar      1 <0>        -0.2554
     22 C19         2.3758    0.1674   -0.2135 C.ar      1 <0>         0.1605
     23 N3          2.2592    1.4873   -0.1771 N.ar      1 <0>        -0.5172
     24 C20         1.0771    2.0653   -0.0959 C.ar      1 <0>         0.3204
     25 N4         -0.0373    1.3665   -0.0473 N.ar      1 <0>        -0.4936
     26 F1         -3.4645    4.4775    3.1832 F         1 <0>        -0.1350
     27 H1         -0.7423    1.0644    2.0866 H         1 <0>         0.1164
     28 H2         -1.1930    3.1954    3.2287 H         1 <0>         0.1366
     29 H3         -5.1929    3.1671    1.7336 H         1 <0>         0.1411
     30 H4         -4.7552    1.0399    0.5793 H         1 <0>         0.1376
     31 H5         -3.2146   -3.2758   -0.5490 H         1 <0>         0.2183
     32 H6         -1.0042   -3.4317   -2.0142 H         1 <0>         0.1154
     33 H7          0.2295   -2.1723   -1.7689 H         1 <0>         0.1052
     34 H8          0.6777   -3.1289    0.5131 H         1 <0>         0.0983
     35 H9         -0.4611   -4.4462    0.1442 H         1 <0>         0.1050
     36 H10         0.9195   -5.0919   -1.8117 H         1 <0>         0.1407
     37 H11         2.0583   -3.7746   -1.4428 H         1 <0>         0.1371
     38 H12         3.5455   -3.9678    0.4455 H         1 <0>         0.1431
     39 H13         2.0856   -3.9219    1.4641 H         1 <0>         0.1389
     40 H14         2.6875   -6.0867    2.4695 H         1 <0>         0.0820
     41 H15         4.0386   -4.9418    2.6525 H         1 <0>         0.1431
     42 H16         2.8769   -7.8220    0.7291 H         1 <0>         0.0820
     43 H17         4.3559   -7.8470   -0.2623 H         1 <0>         0.1436
     44 H18         2.4073   -6.8686   -1.4912 H         1 <0>         0.1432
     45 H19         3.7344   -5.6984   -1.2902 H         1 <0>         0.1421
     46 H20         1.3008   -1.6897   -0.1935 H         1 <0>         0.1352
     47 H21         3.3504   -0.2933   -0.2804 H         1 <0>         0.1688
     48 H22         1.0215    3.1435   -0.0684 H         1 <0>         0.2067
     49 N5          2.0405   -5.3777   -0.0531 N.4       1 <0>        -0.3956
     50 H23         1.3385   -5.9450    0.4363 H         1 <0>         0.4286
@<TRIPOS>BOND
     1    1    6 ar
     2    1    2 ar
     3    1   27 1
     4    2    3 ar
     5    2   28 1
     6    3    4 ar
     7    3   26 1
     8    4    5 ar
     9    4   29 1
    10    5    6 ar
    11    5   30 1
    12    6    7 1
    13    7   11 1
    14    7    8 2
    15    8    9 1
    16    8   20 1
    17    9   10 1
    18    9   12 1
    19   10   11 2
    20   10   31 1
    21   12   13 1
    22   12   32 1
    23   12   33 1
    24   13   14 1
    25   13   34 1
    26   13   35 1
    27   14   36 1
    28   14   37 1
    29   14   49 1
    30   15   16 1
    31   15   38 1
    32   15   39 1
    33   15   49 1
    34   16   17 1
    35   16   40 1
    36   16   41 1
    37   17   18 1
    38   18   19 1
    39   18   42 1
    40   18   43 1
    41   19   44 1
    42   19   45 1
    43   19   49 1
    44   20   25 ar
    45   20   21 ar
    46   21   22 ar
    47   21   46 1
    48   22   23 ar
    49   22   47 1
    50   23   24 ar
    51   24   25 ar
    52   24   48 1
    53   49   50 1
@<TRIPOS>MOLECULE
ZINC03815745
   51    54     0     0     0
SMALL
USER_CHARGES

@<TRIPOS>ATOM
      1 C1         -1.7159    1.5250    2.0068 C.ar      1 <0>        -0.0149
      2 C2         -1.9693    2.7201    2.6474 C.ar      1 <0>        -0.1529
      3 C3         -3.2197    3.3094    2.5502 C.ar      1 <0>         0.1543
      4 C4         -4.2198    2.7042    1.8061 C.ar      1 <0>        -0.1499
      5 C5         -3.9748    1.5112    1.1584 C.ar      1 <0>        -0.0548
      6 C6         -2.7178    0.9144    1.2528 C.ar      1 <0>        -0.0930
      7 C7         -2.4496   -0.3670    0.5595 C.2       1 <0>         0.1666
      8 C8         -1.2537   -0.7491   -0.0241 C.2       1 <0>         0.0746
      9 N1         -1.4680   -2.0051   -0.5484 N.pl3     1 <0>        -0.4046
     10 C9         -2.7435   -2.3447   -0.2706 C.cat     1 <0>         0.3110
     11 C10        -0.4900   -2.8223   -1.2710 C.3       1 <0>         0.0918
     12 C11         0.2430   -3.7325   -0.2836 C.3       1 <0>        -0.1868
     13 C12         1.3542   -4.4883   -1.0150 C.3       1 <0>        -0.0039
     14 C13         2.7842   -4.5726    0.9382 C.3       1 <0>        -0.0466
     15 C14         3.4522   -5.5199    1.9383 C.3       1 <0>         0.0341
     16 O1          4.3110   -6.4207    1.2336 O.3       1 <0>        -0.3507
     17 C15         3.6363   -7.2062    0.2472 C.3       1 <0>         0.0326
     18 C16         2.9702   -6.2760   -0.7701 C.3       1 <0>        -0.0387
     19 C17        -0.0054    0.0325   -0.0791 C.ar      1 <0>         0.2211
     20 C18         1.2366   -0.6120   -0.1652 C.ar      1 <0>        -0.2356
     21 C19         2.3758    0.1674   -0.2135 C.ar      1 <0>         0.1733
     22 N2          2.2592    1.4873   -0.1771 N.ar      1 <0>        -0.4913
     23 C20         1.0771    2.0653   -0.0959 C.ar      1 <0>         0.3322
     24 N3         -0.0373    1.3665   -0.0473 N.ar      1 <0>        -0.4859
     25 F1         -3.4645    4.4775    3.1832 F         1 <0>        -0.1172
     26 H1         -0.7423    1.0644    2.0866 H         1 <0>         0.1268
     27 H2         -1.1930    3.1954    3.2287 H         1 <0>         0.1515
     28 H3         -5.1929    3.1671    1.7336 H         1 <0>         0.1546
     29 H4         -4.7552    1.0399    0.5793 H         1 <0>         0.1373
     30 H5         -3.2146   -3.2758   -0.5490 H         1 <0>         0.2704
     31 H6         -1.0042   -3.4317   -2.0142 H         1 <0>         0.1427
     32 H7          0.2295   -2.1723   -1.7689 H         1 <0>         0.1324
     33 H8          0.6777   -3.1289    0.5131 H         1 <0>         0.1050
     34 H9         -0.4611   -4.4462    0.1442 H         1 <0>         0.1134
     35 H10         0.9195   -5.0919   -1.8117 H         1 <0>         0.1463
     36 H11         2.0583   -3.7746   -1.4428 H         1 <0>         0.1421
     37 H12         3.5455   -3.9678    0.4455 H         1 <0>         0.1454
     38 H13         2.0856   -3.9219    1.4641 H         1 <0>         0.1353
     39 H14         2.6875   -6.0867    2.4695 H         1 <0>         0.0826
     40 H15         4.0386   -4.9418    2.6525 H         1 <0>         0.1448
     41 H16         2.8769   -7.8220    0.7291 H         1 <0>         0.0838
     42 H17         4.3559   -7.8470   -0.2623 H         1 <0>         0.1475
     43 H18         2.4073   -6.8686   -1.4912 H         1 <0>         0.1458
     44 H19         3.7344   -5.6984   -1.2902 H         1 <0>         0.1451
     45 H20         1.3008   -1.6897   -0.1935 H         1 <0>         0.1408
     46 H21         3.3504   -0.2933   -0.2804 H         1 <0>         0.1816
     47 H22         1.0215    3.1435   -0.0684 H         1 <0>         0.2178
     48 N4          2.0405   -5.3777   -0.0531 N.4       1 <0>        -0.3962
     49 H23         1.3385   -5.9450    0.4363 H         1 <0>         0.4292
     50 N5         -3.3232   -1.3742    0.3813 N.pl3     1 <0>        -0.4791
     51 H24        -4.2966   -1.3787    0.7081 H         1 <0>         0.4884
@<TRIPOS>BOND
     1    1    6 ar
     2    1    2 ar
     3    1   26 1
     4    2    3 ar
     5    2   27 1
     6    3    4 ar
     7    3   25 1
     8    4    5 ar
     9    4   28 1
    10    5    6 ar
    11    5   29 1
    12    6    7 1
    13    7    8 2
    14    7   50 1
    15    8    9 1
    16    8   19 1
    17    9   10 1
    18    9   11 1
    19   10   30 1
    20   10   50 2
    21   11   12 1
    22   11   31 1
    23   11   32 1
    24   12   13 1
    25   12   33 1
    26   12   34 1
    27   13   35 1
    28   13   36 1
    29   13   48 1
    30   14   15 1
    31   14   37 1
    32   14   38 1
    33   14   48 1
    34   15   16 1
    35   15   39 1
    36   15   40 1
    37   16   17 1
    38   17   18 1
    39   17   41 1
    40   17   42 1
    41   18   43 1
    42   18   44 1
    43   18   48 1
    44   19   24 ar
    45   19   20 ar
    46   20   21 ar
    47   20   45 1
    48   21   22 ar
    49   21   46 1
    50   22   23 ar
    51   23   24 ar
    52   23   47 1
    53   48   49 1
    54   50   51 1
@<TRIPOS>MOLECULE
ZINC03815746
   44    47     0     0     0
SMALL
USER_CHARGES

@<TRIPOS>ATOM
      1 C1         -0.5965   -7.6654    2.0556 C.3       1 <0>        -0.6498
      2 S1          0.6583   -7.3061    0.7958 S.o2      1 <0>         2.4994
      3 O1          0.0438   -7.1476   -0.4756 O.2       1 <0>        -0.9366
      4 O2          1.7757   -8.1689    0.9579 O.2       1 <0>        -0.9313
      5 C2          1.2648   -5.7032    1.2050 C.ar      1 <0>        -0.6541
      6 C3          2.3436   -5.5712    2.0616 C.ar      1 <0>        -0.0131
      7 C4          2.8256   -4.3164    2.3883 C.ar      1 <0>        -0.1312
      8 C5          2.2327   -3.1874    1.8613 C.ar      1 <0>        -0.0220
      9 C6          1.1448   -3.3136    0.9964 C.ar      1 <0>        -0.0335
     10 C7          0.6599   -4.5825    0.6750 C.ar      1 <0>        -0.0202
     11 C8          0.5046   -2.1082    0.4279 C.2       1 <0>         0.2322
     12 N1          0.8850   -0.8213    0.6722 N.2       1 <0>        -0.4462
     13 H1         -0.9885   -2.9221   -0.7338 H         1 <0>         0.4310
     14 C9          0.0379   -0.0047   -0.0427 C.2       1 <0>         0.0607
     15 C10        -0.8459   -0.8420   -0.7040 C.2       1 <0>         0.0349
     16 N2         -0.5213   -2.1063   -0.3930 N.pl3     1 <0>        -0.5074
     17 C11        -1.9500   -0.4176   -1.5963 C.ar      1 <0>        -0.0378
     18 C12        -3.1910   -1.0496   -1.5229 C.ar      1 <0>        -0.0812
     19 C13        -4.2172   -0.6480   -2.3528 C.ar      1 <0>        -0.1474
     20 C14        -4.0135    0.3751   -3.2649 C.ar      1 <0>         0.1110
     21 C15        -2.7807    1.0026   -3.3451 C.ar      1 <0>        -0.1457
     22 C16        -1.7498    0.6113   -2.5161 C.ar      1 <0>        -0.0585
     23 F1         -5.0201    0.7618   -4.0788 F         1 <0>        -0.1338
     24 C17         0.0631    1.4692   -0.0909 C.ar      1 <0>         0.0410
     25 C18        -1.1133    2.2155    0.0641 C.ar      1 <0>        -0.1530
     26 C19        -1.0422    3.5913    0.0177 C.ar      1 <0>         0.1022
     27 N3          0.1098    4.2045   -0.1804 N.ar      1 <0>        -0.4826
     28 C20         1.2400    3.5407   -0.3367 C.ar      1 <0>         0.1014
     29 C21         1.2632    2.1631   -0.2990 C.ar      1 <0>        -0.1470
     30 H2         -1.3835   -6.9126    2.0097 H         1 <0>         0.1311
     31 H3         -1.0248   -8.6506    1.8712 H         1 <0>         0.1358
     32 H4         -0.1351   -7.6488    3.0430 H         1 <0>         0.1339
     33 H5          2.8110   -6.4516    2.4772 H         1 <0>         0.1487
     34 H6          3.6677   -4.2201    3.0577 H         1 <0>         0.1438
     35 H7          2.6100   -2.2083    2.1171 H         1 <0>         0.1478
     36 H8         -0.1848   -4.6867    0.0101 H         1 <0>         0.1363
     37 H9         -3.3493   -1.8499   -0.8153 H         1 <0>         0.1318
     38 H10        -5.1797   -1.1341   -2.2939 H         1 <0>         0.1421
     39 H11        -2.6266    1.7990   -4.0581 H         1 <0>         0.1430
     40 H12        -0.7892    1.1007   -2.5797 H         1 <0>         0.1352
     41 H13        -2.0601    1.7204    0.2216 H         1 <0>         0.1338
     42 H14        -1.9422    4.1754    0.1406 H         1 <0>         0.1582
     43 H15         2.1592    4.0845   -0.4968 H         1 <0>         0.1591
     44 H16         2.1916    1.6266   -0.4273 H         1 <0>         0.1380
@<TRIPOS>BOND
     1    1    2 1
     2    1   30 1
     3    1   31 1
     4    1   32 1
     5    2    3 2
     6    2    4 2
     7    2    5 1
     8    5   10 ar
     9    5    6 ar
    10    6    7 ar
    11    6   33 1
    12    7    8 ar
    13    7   34 1
    14    8    9 ar
    15    8   35 1
    16    9   10 ar
    17    9   11 1
    18   10   36 1
    19   11   12 2
    20   11   16 1
    21   12   14 1
    22   13   16 1
    23   14   15 2
    24   14   24 1
    25   15   16 1
    26   15   17 1
    27   17   22 ar
    28   17   18 ar
    29   18   19 ar
    30   18   37 1
    31   19   20 ar
    32   19   38 1
    33   20   21 ar
    34   20   23 1
    35   21   22 ar
    36   21   39 1
    37   22   40 1
    38   24   29 ar
    39   24   25 ar
    40   25   26 ar
    41   25   41 1
    42   26   27 ar
    43   26   42 1
    44   27   28 ar
    45   28   29 ar
    46   28   43 1
    47   29   44 1
@<TRIPOS>MOLECULE
ZINC03815746
   45    48     0     0     0
SMALL
USER_CHARGES

@<TRIPOS>ATOM
      1 C1         -0.5965   -7.6654    2.0556 C.3       1 <0>        -0.6463
      2 S1          0.6583   -7.3061    0.7958 S.o2      1 <0>         2.4941
      3 O1          0.0438   -7.1476   -0.4756 O.2       1 <0>        -0.9280
      4 O2          1.7757   -8.1689    0.9579 O.2       1 <0>        -0.9173
      5 C2          1.2648   -5.7032    1.2050 C.ar      1 <0>        -0.6515
      6 C3          2.3436   -5.5712    2.0616 C.ar      1 <0>         0.0263
      7 C4          2.8256   -4.3164    2.3883 C.ar      1 <0>        -0.1188
      8 C5          2.2327   -3.1874    1.8613 C.ar      1 <0>        -0.0248
      9 C6          1.1448   -3.3136    0.9964 C.ar      1 <0>        -0.1065
     10 C7          0.6599   -4.5825    0.6750 C.ar      1 <0>         0.0165
     11 C8          0.5046   -2.1082    0.4279 C.cat     1 <0>         0.3860
     12 N1          0.8850   -0.8213    0.6722 N.pl3     1 <0>        -0.5054
     13 H1          1.6380   -0.5263    1.2603 H         1 <0>         0.4718
     14 C9          0.0379   -0.0047   -0.0427 C.2       1 <0>         0.1192
     15 C10        -0.8466   -0.8420   -0.7031 C.2       1 <0>         0.1180
     16 C11        -1.9512   -0.4175   -1.5948 C.ar      1 <0>        -0.0875
     17 C12        -3.1921   -1.0497   -1.5209 C.ar      1 <0>        -0.0607
     18 C13        -4.2187   -0.6480   -2.3502 C.ar      1 <0>        -0.1468
     19 C14        -4.0156    0.3752   -3.2622 C.ar      1 <0>         0.1443
     20 C15        -2.7829    1.0028   -3.3430 C.ar      1 <0>        -0.1463
     21 C16        -1.7516    0.6115   -2.5146 C.ar      1 <0>        -0.0429
     22 F1         -5.0227    0.7619   -4.0756 F         1 <0>        -0.1203
     23 C17         0.0631    1.4692   -0.0909 C.ar      1 <0>        -0.0216
     24 C18        -1.1133    2.2155    0.0641 C.ar      1 <0>        -0.1296
     25 C19        -1.0422    3.5913    0.0177 C.ar      1 <0>         0.1175
     26 N2          0.1098    4.2045   -0.1804 N.ar      1 <0>        -0.4572
     27 C20         1.2400    3.5407   -0.3367 C.ar      1 <0>         0.1170
     28 C21         1.2632    2.1631   -0.2990 C.ar      1 <0>        -0.1480
     29 H2         -1.3835   -6.9126    2.0097 H         1 <0>         0.1322
     30 H3         -1.0248   -8.6506    1.8712 H         1 <0>         0.1437
     31 H4         -0.1351   -7.6488    3.0430 H         1 <0>         0.1369
     32 H5          2.8110   -6.4516    2.4772 H         1 <0>         0.1648
     33 H6          3.6677   -4.2201    3.0577 H         1 <0>         0.1596
     34 H7          2.6100   -2.2083    2.1171 H         1 <0>         0.1414
     35 H8         -0.1848   -4.6867    0.0101 H         1 <0>         0.1493
     36 H9         -3.3500   -1.8501   -0.8133 H         1 <0>         0.1388
     37 H10        -5.1812   -1.1342   -2.2909 H         1 <0>         0.1533
     38 H11        -2.6292    1.7994   -4.0559 H         1 <0>         0.1530
     39 H12        -0.7910    1.1010   -2.5786 H         1 <0>         0.1399
     40 H13        -2.0601    1.7204    0.2216 H         1 <0>         0.1464
     41 H14        -1.9422    4.1754    0.1406 H         1 <0>         0.1723
     42 H15         2.1592    4.0845   -0.4968 H         1 <0>         0.1716
     43 H16         2.1916    1.6266   -0.4273 H         1 <0>         0.1423
     44 N3         -0.5220   -2.1068   -0.3927 N.pl3     1 <0>        -0.4765
     45 H17        -1.0019   -2.9444   -0.7425 H         1 <0>         0.4800
@<TRIPOS>BOND
     1    1    2 1
     2    1   29 1
     3    1   30 1
     4    1   31 1
     5    2    3 2
     6    2    4 2
     7    2    5 1
     8    5   10 ar
     9    5    6 ar
    10    6    7 ar
    11    6   32 1
    12    7    8 ar
    13    7   33 1
    14    8    9 ar
    15    8   34 1
    16    9   10 ar
    17    9   11 1
    18   10   35 1
    19   11   12 1
    20   11   44 2
    21   12   13 1
    22   12   14 1
    23   14   15 2
    24   14   23 1
    25   15   16 1
    26   15   44 1
    27   16   21 ar
    28   16   17 ar
    29   17   18 ar
    30   17   36 1
    31   18   19 ar
    32   18   37 1
    33   19   20 ar
    34   19   22 1
    35   20   21 ar
    36   20   38 1
    37   21   39 1
    38   23   28 ar
    39   23   24 ar
    40   24   25 ar
    41   24   40 1
    42   25   26 ar
    43   25   41 1
    44   26   27 ar
    45   27   28 ar
    46   27   42 1
    47   28   43 1
    48   44   45 1
@<TRIPOS>MOLECULE
ZINC03815746
   44    47     0     0     0
SMALL
USER_CHARGES

@<TRIPOS>ATOM
      1 C1         -0.5965   -7.6654    2.0556 C.3       1 <0>        -0.6498
      2 S1          0.6583   -7.3061    0.7958 S.o2      1 <0>         2.4994
      3 O1          0.0438   -7.1476   -0.4756 O.2       1 <0>        -0.9366
      4 O2          1.7757   -8.1689    0.9579 O.2       1 <0>        -0.9313
      5 C2          1.2648   -5.7032    1.2050 C.ar      1 <0>        -0.6541
      6 C3          2.3436   -5.5712    2.0616 C.ar      1 <0>        -0.0131
      7 C4          2.8256   -4.3164    2.3883 C.ar      1 <0>        -0.1312
      8 C5          2.2327   -3.1874    1.8613 C.ar      1 <0>        -0.0220
      9 C6          1.1448   -3.3136    0.9964 C.ar      1 <0>        -0.0335
     10 C7          0.6599   -4.5825    0.6750 C.ar      1 <0>        -0.0202
     11 C8          0.5046   -2.1082    0.4279 C.2       1 <0>         0.2322
     12 N1          0.8850   -0.8213    0.6722 N.2       1 <0>        -0.4462
     13 H1         -0.9885   -2.9221   -0.7338 H         1 <0>         0.4310
     14 C9          0.0379   -0.0047   -0.0427 C.2       1 <0>         0.0607
     15 C10        -0.8459   -0.8420   -0.7040 C.2       1 <0>         0.0349
     16 N2         -0.5213   -2.1063   -0.3930 N.pl3     1 <0>        -0.5074
     17 C11        -1.9500   -0.4176   -1.5963 C.ar      1 <0>        -0.0378
     18 C12        -3.1910   -1.0496   -1.5229 C.ar      1 <0>        -0.0812
     19 C13        -4.2172   -0.6480   -2.3528 C.ar      1 <0>        -0.1474
     20 C14        -4.0135    0.3751   -3.2649 C.ar      1 <0>         0.1110
     21 C15        -2.7807    1.0026   -3.3451 C.ar      1 <0>        -0.1457
     22 C16        -1.7498    0.6113   -2.5161 C.ar      1 <0>        -0.0585
     23 F1         -5.0201    0.7618   -4.0788 F         1 <0>        -0.1338
     24 C17         0.0631    1.4692   -0.0909 C.ar      1 <0>         0.0410
     25 C18        -1.1133    2.2155    0.0641 C.ar      1 <0>        -0.1530
     26 C19        -1.0422    3.5913    0.0177 C.ar      1 <0>         0.1022
     27 N3          0.1098    4.2045   -0.1804 N.ar      1 <0>        -0.4826
     28 C20         1.2400    3.5407   -0.3367 C.ar      1 <0>         0.1014
     29 C21         1.2632    2.1631   -0.2990 C.ar      1 <0>        -0.1470
     30 H2         -1.3835   -6.9126    2.0097 H         1 <0>         0.1311
     31 H3         -1.0248   -8.6506    1.8712 H         1 <0>         0.1358
     32 H4         -0.1351   -7.6488    3.0430 H         1 <0>         0.1339
     33 H5          2.8110   -6.4516    2.4772 H         1 <0>         0.1487
     34 H6          3.6677   -4.2201    3.0577 H         1 <0>         0.1438
     35 H7          2.6100   -2.2083    2.1171 H         1 <0>         0.1478
     36 H8         -0.1848   -4.6867    0.0101 H         1 <0>         0.1363
     37 H9         -3.3493   -1.8499   -0.8153 H         1 <0>         0.1318
     38 H10        -5.1797   -1.1341   -2.2939 H         1 <0>         0.1421
     39 H11        -2.6266    1.7990   -4.0581 H         1 <0>         0.1430
     40 H12        -0.7892    1.1007   -2.5797 H         1 <0>         0.1352
     41 H13        -2.0601    1.7204    0.2216 H         1 <0>         0.1338
     42 H14        -1.9422    4.1754    0.1406 H         1 <0>         0.1582
     43 H15         2.1592    4.0845   -0.4968 H         1 <0>         0.1591
     44 H16         2.1916    1.6266   -0.4273 H         1 <0>         0.1380
@<TRIPOS>BOND
     1    1    2 1
     2    1   30 1
     3    1   31 1
     4    1   32 1
     5    2    3 2
     6    2    4 2
     7    2    5 1
     8    5   10 ar
     9    5    6 ar
    10    6    7 ar
    11    6   33 1
    12    7    8 ar
    13    7   34 1
    14    8    9 ar
    15    8   35 1
    16    9   10 ar
    17    9   11 1
    18   10   36 1
    19   11   12 2
    20   11   16 1
    21   12   14 1
    22   13   16 1
    23   14   15 2
    24   14   24 1
    25   15   16 1
    26   15   17 1
    27   17   22 ar
    28   17   18 ar
    29   18   19 ar
    30   18   37 1
    31   19   20 ar
    32   19   38 1
    33   20   21 ar
    34   20   23 1
    35   21   22 ar
    36   21   39 1
    37   22   40 1
    38   24   29 ar
    39   24   25 ar
    40   25   26 ar
    41   25   41 1
    42   26   27 ar
    43   26   42 1
    44   27   28 ar
    45   28   29 ar
    46   28   43 1
    47   29   44 1
@<TRIPOS>MOLECULE
ZINC03815747
   44    47     0     0     0
SMALL
USER_CHARGES

@<TRIPOS>ATOM
      1 C1         -1.5454   -1.7742   -1.5823 C.3       1 <0>        -0.6846
      2 S1         -1.5105   -0.9077    0.0110 S.o2      1 <0>         2.4638
      3 O1         -1.3689   -1.8412    1.0729 O.2       1 <0>        -0.9158
      4 O2         -2.5260    0.0855    0.0502 O.2       1 <0>        -0.9109
      5 C2          0.0021   -0.0041    0.0020 C.ar      1 <0>        -0.6582
      6 C3         -0.0166    1.3756    0.0096 C.ar      1 <0>        -0.0122
      7 C4          1.1701    2.0865    0.0021 C.ar      1 <0>        -0.1291
      8 C5          2.3828    1.4202   -0.0130 C.ar      1 <0>        -0.0544
      9 C6          2.4155    0.0413   -0.0207 C.ar      1 <0>        -0.0952
     10 C7          1.2217   -0.6822   -0.0132 C.ar      1 <0>         0.0866
     11 C8          1.2493   -2.1604   -0.0210 C.2       1 <0>         0.1849
     12 N1          2.3753   -2.9299   -0.0412 N.2       1 <0>        -0.4249
     13 H1         -0.7563   -2.6278    0.0021 H         1 <0>         0.4001
     14 C9          1.9684   -4.2452   -0.0381 C.2       1 <0>         0.0542
     15 C10         0.5833   -4.2254   -0.0159 C.2       1 <0>         0.0519
     16 N2          0.1931   -2.9417   -0.0096 N.pl3     1 <0>        -0.5114
     17 C11        -0.3073   -5.4096   -0.0070 C.ar      1 <0>        -0.0424
     18 C12         0.0507   -6.5595   -0.7100 C.ar      1 <0>        -0.0606
     19 C13        -0.7797   -7.6610   -0.6952 C.ar      1 <0>        -0.1469
     20 C14        -1.9726   -7.6227    0.0088 C.ar      1 <0>         0.1116
     21 C15        -2.3352   -6.4805    0.7046 C.ar      1 <0>        -0.1489
     22 C16        -1.5091   -5.3757    0.6997 C.ar      1 <0>        -0.0842
     23 F1         -2.7849   -8.7021    0.0166 F         1 <0>        -0.1336
     24 C17         2.8352   -5.4384   -0.0529 C.ar      1 <0>         0.0401
     25 C18         2.5822   -6.5235    0.7977 C.ar      1 <0>        -0.1537
     26 C19         3.4156   -7.6202    0.7468 C.ar      1 <0>         0.1021
     27 N3          4.4443   -7.6526   -0.0797 N.ar      1 <0>        -0.4822
     28 C20         4.7217   -6.6512   -0.8937 C.ar      1 <0>         0.1009
     29 C21         3.9387   -5.5171   -0.9138 C.ar      1 <0>        -0.1467
     30 H2         -0.6815   -2.4349   -1.6555 H         1 <0>         0.1426
     31 H3         -2.4600   -2.3626   -1.6559 H         1 <0>         0.1512
     32 H4         -1.5156   -1.0460   -2.3927 H         1 <0>         0.1572
     33 H5         -0.9598    1.9016    0.0169 H         1 <0>         0.1534
     34 H6          1.1499    3.1663    0.0081 H         1 <0>         0.1423
     35 H7          3.3057    1.9811   -0.0188 H         1 <0>         0.1431
     36 H8          3.3627   -0.4776   -0.0322 H         1 <0>         0.1509
     37 H9          0.9784   -6.5890   -1.2624 H         1 <0>         0.1377
     38 H10        -0.5014   -8.5534   -1.2359 H         1 <0>         0.1438
     39 H11        -3.2663   -6.4551    1.2512 H         1 <0>         0.1435
     40 H12        -1.7928   -4.4858    1.2419 H         1 <0>         0.1411
     41 H13         1.7449   -6.5023    1.4795 H         1 <0>         0.1358
     42 H14         3.2270   -8.4629    1.3955 H         1 <0>         0.1587
     43 H15         5.5744   -6.7213   -1.5528 H         1 <0>         0.1591
     44 H16         4.1715   -4.7018   -1.5827 H         1 <0>         0.1390
@<TRIPOS>BOND
     1    1    2 1
     2    1   30 1
     3    1   31 1
     4    1   32 1
     5    2    3 2
     6    2    4 2
     7    2    5 1
     8    5   10 ar
     9    5    6 ar
    10    6    7 ar
    11    6   33 1
    12    7    8 ar
    13    7   34 1
    14    8    9 ar
    15    8   35 1
    16    9   10 ar
    17    9   36 1
    18   10   11 1
    19   11   12 2
    20   11   16 1
    21   12   14 1
    22   13   16 1
    23   14   15 2
    24   14   24 1
    25   15   16 1
    26   15   17 1
    27   17   22 ar
    28   17   18 ar
    29   18   19 ar
    30   18   37 1
    31   19   20 ar
    32   19   38 1
    33   20   21 ar
    34   20   23 1
    35   21   22 ar
    36   21   39 1
    37   22   40 1
    38   24   29 ar
    39   24   25 ar
    40   25   26 ar
    41   25   41 1
    42   26   27 ar
    43   26   42 1
    44   27   28 ar
    45   28   29 ar
    46   28   43 1
    47   29   44 1
@<TRIPOS>MOLECULE
ZINC03815747
   45    48     0     0     0
SMALL
USER_CHARGES

@<TRIPOS>ATOM
      1 C1         -1.5454   -1.7742   -1.5823 C.3       1 <0>        -0.6862
      2 S1         -1.5105   -0.9077    0.0110 S.o2      1 <0>         2.4481
      3 O1         -1.3689   -1.8412    1.0729 O.2       1 <0>        -0.9049
      4 O2         -2.5260    0.0855    0.0502 O.2       1 <0>        -0.8787
      5 C2          0.0021   -0.0041    0.0020 C.ar      1 <0>        -0.6308
      6 C3         -0.0166    1.3756    0.0096 C.ar      1 <0>         0.0019
      7 C4          1.1701    2.0865    0.0021 C.ar      1 <0>        -0.0870
      8 C5          2.3828    1.4202   -0.0130 C.ar      1 <0>        -0.0474
      9 C6          2.4155    0.0413   -0.0207 C.ar      1 <0>        -0.0845
     10 C7          1.2217   -0.6822   -0.0132 C.ar      1 <0>         0.0085
     11 C8          1.2493   -2.1604   -0.0210 C.cat     1 <0>         0.3330
     12 N1          2.3753   -2.9299   -0.0412 N.pl3     1 <0>        -0.4904
     13 H1          3.3194   -2.6005   -0.0556 H         1 <0>         0.4722
     14 C9          1.9684   -4.2452   -0.0381 C.2       1 <0>         0.1195
     15 C10         0.5832   -4.2254   -0.0252 C.2       1 <0>         0.1255
     16 C11        -0.3075   -5.4095   -0.0229 C.ar      1 <0>        -0.0887
     17 C12         0.0522   -6.5569   -0.7292 C.ar      1 <0>        -0.0459
     18 C13        -0.7783   -7.6583   -0.7205 C.ar      1 <0>        -0.1469
     19 C14        -1.9730   -7.6225   -0.0194 C.ar      1 <0>         0.1447
     20 C15        -2.3373   -6.4829    0.6797 C.ar      1 <0>        -0.1478
     21 C16        -1.5111   -5.3781    0.6809 C.ar      1 <0>        -0.0646
     22 F1         -2.7854   -8.7019   -0.0176 F         1 <0>        -0.1199
     23 C17         2.8352   -5.4384   -0.0529 C.ar      1 <0>        -0.0217
     24 C18         2.5822   -6.5235    0.7977 C.ar      1 <0>        -0.1304
     25 C19         3.4156   -7.6202    0.7468 C.ar      1 <0>         0.1180
     26 N2          4.4443   -7.6526   -0.0797 N.ar      1 <0>        -0.4567
     27 C20         4.7217   -6.6512   -0.8937 C.ar      1 <0>         0.1169
     28 C21         3.9387   -5.5171   -0.9138 C.ar      1 <0>        -0.1484
     29 H2         -0.6815   -2.4349   -1.6555 H         1 <0>         0.1324
     30 H3         -2.4600   -2.3626   -1.6559 H         1 <0>         0.1668
     31 H4         -1.5156   -1.0460   -2.3927 H         1 <0>         0.1725
     32 H5         -0.9598    1.9016    0.0169 H         1 <0>         0.1701
     33 H6          1.1499    3.1663    0.0081 H         1 <0>         0.1602
     34 H7          3.3057    1.9811   -0.0188 H         1 <0>         0.1597
     35 H8          3.3627   -0.4776   -0.0322 H         1 <0>         0.1450
     36 H9          0.9812   -6.5844   -1.2793 H         1 <0>         0.1420
     37 H10        -0.4987   -8.5488   -1.2638 H         1 <0>         0.1541
     38 H11        -3.2697   -6.4594    1.2241 H         1 <0>         0.1548
     39 H12        -1.7961   -4.4902    1.2257 H         1 <0>         0.1464
     40 H13         1.7449   -6.5023    1.4795 H         1 <0>         0.1486
     41 H14         3.2270   -8.4629    1.3955 H         1 <0>         0.1732
     42 H15         5.5744   -6.7213   -1.5528 H         1 <0>         0.1718
     43 H16         4.1715   -4.7018   -1.5827 H         1 <0>         0.1427
     44 N3          0.1924   -2.9415   -0.0151 N.pl3     1 <0>        -0.4770
     45 H17        -0.7824   -2.6191   -0.0044 H         1 <0>         0.4292
@<TRIPOS>BOND
     1    1    2 1
     2    1   29 1
     3    1   30 1
     4    1   31 1
     5    2    3 2
     6    2    4 2
     7    2    5 1
     8    5   10 ar
     9    5    6 ar
    10    6    7 ar
    11    6   32 1
    12    7    8 ar
    13    7   33 1
    14    8    9 ar
    15    8   34 1
    16    9   10 ar
    17    9   35 1
    18   10   11 1
    19   11   12 1
    20   11   44 2
    21   12   13 1
    22   12   14 1
    23   14   15 2
    24   14   23 1
    25   15   16 1
    26   15   44 1
    27   16   21 ar
    28   16   17 ar
    29   17   18 ar
    30   17   36 1
    31   18   19 ar
    32   18   37 1
    33   19   20 ar
    34   19   22 1
    35   20   21 ar
    36   20   38 1
    37   21   39 1
    38   23   28 ar
    39   23   24 ar
    40   24   25 ar
    41   24   40 1
    42   25   26 ar
    43   25   41 1
    44   26   27 ar
    45   27   28 ar
    46   27   42 1
    47   28   43 1
    48   44   45 1
@<TRIPOS>MOLECULE
ZINC03815747
   44    47     0     0     0
SMALL
USER_CHARGES

@<TRIPOS>ATOM
      1 C1         -1.5454   -1.7742   -1.5823 C.3       1 <0>        -0.6846
      2 S1         -1.5105   -0.9077    0.0110 S.o2      1 <0>         2.4638
      3 O1         -1.3689   -1.8412    1.0729 O.2       1 <0>        -0.9158
      4 O2         -2.5260    0.0855    0.0502 O.2       1 <0>        -0.9109
      5 C2          0.0021   -0.0041    0.0020 C.ar      1 <0>        -0.6582
      6 C3         -0.0166    1.3756    0.0096 C.ar      1 <0>        -0.0122
      7 C4          1.1701    2.0865    0.0021 C.ar      1 <0>        -0.1291
      8 C5          2.3828    1.4202   -0.0130 C.ar      1 <0>        -0.0544
      9 C6          2.4155    0.0413   -0.0207 C.ar      1 <0>        -0.0952
     10 C7          1.2217   -0.6822   -0.0132 C.ar      1 <0>         0.0866
     11 C8          1.2493   -2.1604   -0.0210 C.2       1 <0>         0.1849
     12 N1          2.3753   -2.9299   -0.0412 N.2       1 <0>        -0.4249
     13 H1         -0.7563   -2.6278    0.0021 H         1 <0>         0.4001
     14 C9          1.9684   -4.2452   -0.0381 C.2       1 <0>         0.0542
     15 C10         0.5833   -4.2254   -0.0159 C.2       1 <0>         0.0519
     16 N2          0.1931   -2.9417   -0.0096 N.pl3     1 <0>        -0.5114
     17 C11        -0.3073   -5.4096   -0.0070 C.ar      1 <0>        -0.0424
     18 C12         0.0507   -6.5595   -0.7100 C.ar      1 <0>        -0.0606
     19 C13        -0.7797   -7.6610   -0.6952 C.ar      1 <0>        -0.1469
     20 C14        -1.9726   -7.6227    0.0088 C.ar      1 <0>         0.1116
     21 C15        -2.3352   -6.4805    0.7046 C.ar      1 <0>        -0.1489
     22 C16        -1.5091   -5.3757    0.6997 C.ar      1 <0>        -0.0842
     23 F1         -2.7849   -8.7021    0.0166 F         1 <0>        -0.1336
     24 C17         2.8352   -5.4384   -0.0529 C.ar      1 <0>         0.0401
     25 C18         2.5822   -6.5235    0.7977 C.ar      1 <0>        -0.1537
     26 C19         3.4156   -7.6202    0.7468 C.ar      1 <0>         0.1021
     27 N3          4.4443   -7.6526   -0.0797 N.ar      1 <0>        -0.4822
     28 C20         4.7217   -6.6512   -0.8937 C.ar      1 <0>         0.1009
     29 C21         3.9387   -5.5171   -0.9138 C.ar      1 <0>        -0.1467
     30 H2         -0.6815   -2.4349   -1.6555 H         1 <0>         0.1426
     31 H3         -2.4600   -2.3626   -1.6559 H         1 <0>         0.1512
     32 H4         -1.5156   -1.0460   -2.3927 H         1 <0>         0.1572
     33 H5         -0.9598    1.9016    0.0169 H         1 <0>         0.1534
     34 H6          1.1499    3.1663    0.0081 H         1 <0>         0.1423
     35 H7          3.3057    1.9811   -0.0188 H         1 <0>         0.1431
     36 H8          3.3627   -0.4776   -0.0322 H         1 <0>         0.1509
     37 H9          0.9784   -6.5890   -1.2624 H         1 <0>         0.1377
     38 H10        -0.5014   -8.5534   -1.2359 H         1 <0>         0.1438
     39 H11        -3.2663   -6.4551    1.2512 H         1 <0>         0.1435
     40 H12        -1.7928   -4.4858    1.2419 H         1 <0>         0.1411
     41 H13         1.7449   -6.5023    1.4795 H         1 <0>         0.1358
     42 H14         3.2270   -8.4629    1.3955 H         1 <0>         0.1587
     43 H15         5.5744   -6.7213   -1.5528 H         1 <0>         0.1591
     44 H16         4.1715   -4.7018   -1.5827 H         1 <0>         0.1390
@<TRIPOS>BOND
     1    1    2 1
     2    1   30 1
     3    1   31 1
     4    1   32 1
     5    2    3 2
     6    2    4 2
     7    2    5 1
     8    5   10 ar
     9    5    6 ar
    10    6    7 ar
    11    6   33 1
    12    7    8 ar
    13    7   34 1
    14    8    9 ar
    15    8   35 1
    16    9   10 ar
    17    9   36 1
    18   10   11 1
    19   11   12 2
    20   11   16 1
    21   12   14 1
    22   13   16 1
    23   14   15 2
    24   14   24 1
    25   15   16 1
    26   15   17 1
    27   17   22 ar
    28   17   18 ar
    29   18   19 ar
    30   18   37 1
    31   19   20 ar
    32   19   38 1
    33   20   21 ar
    34   20   23 1
    35   21   22 ar
    36   21   39 1
    37   22   40 1
    38   24   29 ar
    39   24   25 ar
    40   25   26 ar
    41   25   41 1
    42   26   27 ar
    43   26   42 1
    44   27   28 ar
    45   28   29 ar
    46   28   43 1
    47   29   44 1
@<TRIPOS>MOLECULE
ZINC03815748
   35    38     0     0     0
SMALL
USER_CHARGES

@<TRIPOS>ATOM
      1 C1         -5.1790    7.2107    0.9342 C.ar      1 <0>        -0.1143
      2 C2         -4.9163    8.1833   -0.0143 C.ar      1 <0>        -0.1023
      3 C3         -3.9054    7.9995   -0.9401 C.ar      1 <0>        -0.1127
      4 C4         -3.1471    6.8452   -0.9184 C.ar      1 <0>        -0.0130
      5 C5         -3.4115    5.8585    0.0323 C.ar      1 <0>         0.0047
      6 C6         -4.4328    6.0505    0.9625 C.ar      1 <0>        -0.0894
      7 C7         -2.6068    4.6150    0.0574 C.2       1 <0>         0.0772
      8 C8         -2.0248    4.0389    1.1709 C.2       1 <0>         0.0352
      9 N1         -1.3812    2.9031    0.7241 N.pl3     1 <0>        -0.4661
     10 C9         -1.5797    2.8233   -0.6069 C.2       1 <0>         0.2026
     11 N2         -2.3087    3.8386   -0.9983 N.2       1 <0>        -0.4493
     12 C10        -0.8876    1.5910   -1.1581 C.3       1 <0>        -0.0426
     13 C11         0.1020    1.1803   -0.0448 C.3       1 <0>        -0.1292
     14 C12        -0.5697    1.7768    1.2106 C.3       1 <0>         0.0999
     15 C13        -2.0803    4.5383    2.5584 C.ar      1 <0>         0.0311
     16 C14        -2.5066    3.7105    3.6056 C.ar      1 <0>        -0.1638
     17 C15        -2.5387    4.2174    4.8870 C.ar      1 <0>         0.1047
     18 N3         -2.1844    5.4652    5.1317 N.ar      1 <0>        -0.4810
     19 C16        -1.7813    6.2800    4.1747 C.ar      1 <0>         0.1068
     20 C17        -1.7136    5.8557    2.8650 C.ar      1 <0>        -0.1451
     21 Cl1        -1.8730    6.6192   -2.0757 Cl        1 <0>        -0.0521
     22 H1         -5.9698    7.3603    1.6544 H         1 <0>         0.1312
     23 H2         -5.5034    9.0896   -0.0320 H         1 <0>         0.1338
     24 H3         -3.7056    8.7620   -1.6784 H         1 <0>         0.1362
     25 H4         -4.6394    5.2923    1.7033 H         1 <0>         0.1261
     26 H5         -0.3506    1.8335   -2.0752 H         1 <0>         0.1017
     27 H6         -1.6096    0.7948   -1.3393 H         1 <0>         0.1003
     28 H7          0.1759    0.0954    0.0305 H         1 <0>         0.1059
     29 H8          1.0829    1.6255   -0.2112 H         1 <0>         0.0900
     30 H9         -1.2066    1.0317    1.6875 H         1 <0>         0.0935
     31 H10         0.1869    2.1309    1.9108 H         1 <0>         0.0920
     32 H11        -2.8023    2.6899    3.4121 H         1 <0>         0.1313
     33 H12        -2.8619    3.5861    5.7015 H         1 <0>         0.1593
     34 H13        -1.5009    7.2934    4.4213 H         1 <0>         0.1609
     35 H14        -1.3829    6.5279    2.0872 H         1 <0>         0.1365
@<TRIPOS>BOND
     1    1    6 ar
     2    1    2 ar
     3    1   22 1
     4    2    3 ar
     5    2   23 1
     6    3    4 ar
     7    3   24 1
     8    4    5 ar
     9    4   21 1
    10    5    6 ar
    11    5    7 1
    12    6   25 1
    13    7   11 1
    14    7    8 2
    15    8    9 1
    16    8   15 1
    17    9   14 1
    18    9   10 1
    19   10   11 2
    20   10   12 1
    21   12   13 1
    22   12   26 1
    23   12   27 1
    24   13   14 1
    25   13   28 1
    26   13   29 1
    27   14   30 1
    28   14   31 1
    29   15   20 ar
    30   15   16 ar
    31   16   17 ar
    32   16   32 1
    33   17   18 ar
    34   17   33 1
    35   18   19 ar
    36   19   20 ar
    37   19   34 1
    38   20   35 1
@<TRIPOS>MOLECULE
ZINC03815748
   36    39     0     0     0
SMALL
USER_CHARGES

@<TRIPOS>ATOM
      1 C1         -5.1790    7.2107    0.9342 C.ar      1 <0>        -0.1040
      2 C2         -4.9163    8.1833   -0.0143 C.ar      1 <0>        -0.0694
      3 C3         -3.9054    7.9995   -0.9401 C.ar      1 <0>        -0.1001
      4 C4         -3.1471    6.8452   -0.9184 C.ar      1 <0>        -0.0176
      5 C5         -3.4115    5.8585    0.0323 C.ar      1 <0>        -0.0586
      6 C6         -4.4328    6.0505    0.9625 C.ar      1 <0>        -0.0637
      7 C7         -2.6068    4.6150    0.0574 C.2       1 <0>         0.1083
      8 C8         -2.0248    4.0389    1.1709 C.2       1 <0>         0.1303
      9 N1         -1.3812    2.9031    0.7241 N.pl3     1 <0>        -0.4143
     10 C9         -1.5797    2.8233   -0.6069 C.cat     1 <0>         0.2917
     11 C10        -0.8876    1.5910   -1.1581 C.3       1 <0>        -0.0640
     12 C11         0.1020    1.1803   -0.0448 C.3       1 <0>        -0.1282
     13 C12        -0.5697    1.7768    1.2106 C.3       1 <0>         0.0853
     14 C13        -2.0803    4.5383    2.5584 C.ar      1 <0>        -0.0171
     15 C14        -2.5066    3.7105    3.6056 C.ar      1 <0>        -0.1463
     16 C15        -2.5387    4.2174    4.8870 C.ar      1 <0>         0.1154
     17 N2         -2.1844    5.4652    5.1317 N.ar      1 <0>        -0.4586
     18 C16        -1.7813    6.2800    4.1747 C.ar      1 <0>         0.1169
     19 C17        -1.7136    5.8557    2.8650 C.ar      1 <0>        -0.1306
     20 Cl1        -1.8730    6.6192   -2.0757 Cl        1 <0>        -0.0568
     21 H1         -5.9698    7.3603    1.6544 H         1 <0>         0.1467
     22 H2         -5.5034    9.0896   -0.0320 H         1 <0>         0.1491
     23 H3         -3.7056    8.7620   -1.6784 H         1 <0>         0.1503
     24 H4         -4.6394    5.2923    1.7033 H         1 <0>         0.1384
     25 H5         -0.3506    1.8335   -2.0752 H         1 <0>         0.1316
     26 H6         -1.6096    0.7948   -1.3393 H         1 <0>         0.1362
     27 H7          0.1759    0.0954    0.0305 H         1 <0>         0.1321
     28 H8          1.0829    1.6255   -0.2112 H         1 <0>         0.1087
     29 H9         -1.2066    1.0317    1.6875 H         1 <0>         0.1259
     30 H10         0.1869    2.1309    1.9108 H         1 <0>         0.1249
     31 H11        -2.8023    2.6899    3.4121 H         1 <0>         0.1397
     32 H12        -2.8619    3.5861    5.7015 H         1 <0>         0.1707
     33 H13        -1.5009    7.2934    4.4213 H         1 <0>         0.1714
     34 H14        -1.3829    6.5279    2.0872 H         1 <0>         0.1431
     35 N3         -2.3091    3.8388   -0.9995 N.pl3     1 <0>        -0.4631
     36 H15        -2.6075    4.0148   -1.9660 H         1 <0>         0.4753
@<TRIPOS>BOND
     1    1    6 ar
     2    1    2 ar
     3    1   21 1
     4    2    3 ar
     5    2   22 1
     6    3    4 ar
     7    3   23 1
     8    4    5 ar
     9    4   20 1
    10    5    6 ar
    11    5    7 1
    12    6   24 1
    13    7    8 2
    14    7   35 1
    15    8    9 1
    16    8   14 1
    17    9   13 1
    18    9   10 1
    19   10   11 1
    20   10   35 2
    21   11   12 1
    22   11   25 1
    23   11   26 1
    24   12   13 1
    25   12   27 1
    26   12   28 1
    27   13   29 1
    28   13   30 1
    29   14   19 ar
    30   14   15 ar
    31   15   16 ar
    32   15   31 1
    33   16   17 ar
    34   16   32 1
    35   17   18 ar
    36   18   19 ar
    37   18   33 1
    38   19   34 1
    39   35   36 1
@<TRIPOS>MOLECULE
ZINC03815749
   52    54     0     0     0
SMALL
USER_CHARGES

@<TRIPOS>ATOM
      1 C1         -0.5965    1.2671   -4.0770 C.3       1 <0>        -0.1855
      2 C2         -0.8496    2.6341   -4.7158 C.3       1 <0>        -0.0149
      3 C3         -2.1985    1.6413   -6.4643 C.3       1 <0>        -0.0112
      4 C4         -1.2575    2.0814   -7.5876 C.3       1 <0>        -0.1888
      5 C5         -3.2390    2.3896   -4.4101 C.3       1 <0>        -0.0070
      6 C6         -3.3253    3.5694   -3.4398 C.3       1 <0>        -0.1692
      7 C7         -4.4484    3.3193   -2.4313 C.3       1 <0>         0.1087
      8 N1         -4.6096    4.4987   -1.5774 N.pl3     1 <0>        -0.4550
      9 C8         -5.4812    5.5116   -1.7691 C.2       1 <0>         0.2060
     10 N2         -5.3436    6.3921   -0.8171 N.2       1 <0>        -0.4689
     11 C9         -4.3833    5.9885    0.0347 C.2       1 <0>         0.0898
     12 C10        -3.9017    4.7776   -0.4300 C.2       1 <0>         0.0083
     13 C11        -2.8390    3.9541    0.1781 C.ar      1 <0>         0.0288
     14 C12        -3.0596    2.6044    0.4841 C.ar      1 <0>        -0.1722
     15 C13        -2.0400    1.8740    1.0557 C.ar      1 <0>         0.1081
     16 N3         -0.8675    2.4264    1.3054 N.ar      1 <0>        -0.4759
     17 C14        -0.6156    3.6922    1.0287 C.ar      1 <0>         0.1103
     18 C15        -1.5788    4.4982    0.4608 C.ar      1 <0>        -0.1482
     19 C16        -3.9265    6.7076    1.2467 C.ar      1 <0>        -0.0311
     20 C17        -3.5401    5.9929    2.3803 C.ar      1 <0>        -0.0713
     21 C18        -3.1114    6.6670    3.5049 C.ar      1 <0>        -0.1521
     22 C19        -3.0737    8.0521    3.5129 C.ar      1 <0>         0.1115
     23 C20        -3.4611    8.7668    2.3908 C.ar      1 <0>        -0.1526
     24 C21        -3.8868    8.1017    1.2597 C.ar      1 <0>        -0.0583
     25 F1         -2.6584    8.7080    4.6186 F         1 <0>        -0.1338
     26 H1          0.3732    1.2726   -3.5792 H         1 <0>         0.1069
     27 H2         -1.3783    1.0567   -3.3472 H         1 <0>         0.0782
     28 H3         -0.6040    0.4981   -4.8494 H         1 <0>         0.0821
     29 H4         -0.0718    2.8413   -5.4508 H         1 <0>         0.1320
     30 H5         -0.8348    3.4040   -3.9444 H         1 <0>         0.1264
     31 H6         -1.8807    0.6707   -6.0835 H         1 <0>         0.1334
     32 H7         -3.2149    1.5649   -6.8508 H         1 <0>         0.1297
     33 H8         -1.5114    3.0950   -7.8980 H         1 <0>         0.0798
     34 H9         -0.2283    2.0582   -7.2294 H         1 <0>         0.0807
     35 H10        -1.3625    1.4047   -8.4356 H         1 <0>         0.1073
     36 H11        -3.0306    1.4759   -3.8534 H         1 <0>         0.1367
     37 H12        -4.1860    2.2845   -4.9395 H         1 <0>         0.1352
     38 H13        -3.5337    4.4831   -3.9964 H         1 <0>         0.0978
     39 H14        -2.3784    3.6745   -2.9104 H         1 <0>         0.0946
     40 H15        -4.1976    2.4560   -1.8149 H         1 <0>         0.1025
     41 H16        -5.3794    3.1268   -2.9646 H         1 <0>         0.1107
     42 H17        -6.1820    5.5837   -2.5877 H         1 <0>         0.2139
     43 H18        -4.0151    2.1447    0.2788 H         1 <0>         0.1331
     44 H19        -2.2013    0.8341    1.2986 H         1 <0>         0.1608
     45 H20         0.3588    4.1020    1.2500 H         1 <0>         0.1628
     46 H21        -1.3658    5.5331    0.2374 H         1 <0>         0.1390
     47 H22        -3.5731    4.9134    2.3764 H         1 <0>         0.1266
     48 H23        -2.8084    6.1144    4.3819 H         1 <0>         0.1396
     49 H24        -3.4301    9.8463    2.4018 H         1 <0>         0.1419
     50 H25        -4.1893    8.6596    0.3858 H         1 <0>         0.1383
     51 N4         -2.1648    2.6557   -5.3899 N.4       1 <0>        -0.3947
     52 H26        -2.3127    3.5841   -5.8029 H         1 <0>         0.4289
@<TRIPOS>BOND
     1    1    2 1
     2    1   26 1
     3    1   27 1
     4    1   28 1
     5    2   29 1
     6    2   30 1
     7    2   51 1
     8    3    4 1
     9    3   31 1
    10    3   32 1
    11    3   51 1
    12    4   33 1
    13    4   34 1
    14    4   35 1
    15    5    6 1
    16    5   36 1
    17    5   37 1
    18    5   51 1
    19    6    7 1
    20    6   38 1
    21    6   39 1
    22    7    8 1
    23    7   40 1
    24    7   41 1
    25    8   12 1
    26    8    9 1
    27    9   10 2
    28    9   42 1
    29   10   11 1
    30   11   12 2
    31   11   19 1
    32   12   13 1
    33   13   18 ar
    34   13   14 ar
    35   14   15 ar
    36   14   43 1
    37   15   16 ar
    38   15   44 1
    39   16   17 ar
    40   17   18 ar
    41   17   45 1
    42   18   46 1
    43   19   24 ar
    44   19   20 ar
    45   20   21 ar
    46   20   47 1
    47   21   22 ar
    48   21   48 1
    49   22   23 ar
    50   22   25 1
    51   23   24 ar
    52   23   49 1
    53   24   50 1
    54   51   52 1
@<TRIPOS>MOLECULE
ZINC03815749
   53    55     0     0     0
SMALL
USER_CHARGES

@<TRIPOS>ATOM
      1 C1         -0.5965    1.2671   -4.0770 C.3       1 <0>        -0.1873
      2 C2         -0.8496    2.6341   -4.7158 C.3       1 <0>        -0.0159
      3 C3         -2.1985    1.6413   -6.4643 C.3       1 <0>        -0.0115
      4 C4         -1.2575    2.0814   -7.5876 C.3       1 <0>        -0.1904
      5 C5         -3.2390    2.3896   -4.4101 C.3       1 <0>        -0.0079
      6 C6         -3.3253    3.5694   -3.4398 C.3       1 <0>        -0.1750
      7 C7         -4.4484    3.3193   -2.4313 C.3       1 <0>         0.0969
      8 N1         -4.6096    4.4987   -1.5774 N.pl3     1 <0>        -0.4080
      9 C8         -5.4812    5.5116   -1.7691 C.cat     1 <0>         0.3014
     10 C9         -4.3833    5.9885    0.0347 C.2       1 <0>         0.1273
     11 C10        -3.9017    4.7776   -0.4300 C.2       1 <0>         0.0938
     12 C11        -2.8390    3.9541    0.1781 C.ar      1 <0>        -0.0193
     13 C12        -3.0596    2.6044    0.4841 C.ar      1 <0>        -0.1565
     14 C13        -2.0400    1.8740    1.0557 C.ar      1 <0>         0.1189
     15 N2         -0.8675    2.4264    1.3054 N.ar      1 <0>        -0.4542
     16 C14        -0.6156    3.6922    1.0287 C.ar      1 <0>         0.1205
     17 C15        -1.5788    4.4982    0.4608 C.ar      1 <0>        -0.1345
     18 C16        -3.9265    6.7076    1.2467 C.ar      1 <0>        -0.0955
     19 C17        -3.5401    5.9929    2.3803 C.ar      1 <0>        -0.0438
     20 C18        -3.1114    6.6670    3.5049 C.ar      1 <0>        -0.1468
     21 C19        -3.0737    8.0521    3.5129 C.ar      1 <0>         0.1508
     22 C20        -3.4611    8.7668    2.3908 C.ar      1 <0>        -0.1465
     23 C21        -3.8868    8.1017    1.2597 C.ar      1 <0>        -0.0601
     24 F1         -2.6584    8.7080    4.6186 F         1 <0>        -0.1161
     25 H1          0.3732    1.2726   -3.5792 H         1 <0>         0.1097
     26 H2         -1.3783    1.0567   -3.3472 H         1 <0>         0.0762
     27 H3         -0.6040    0.4981   -4.8494 H         1 <0>         0.0860
     28 H4         -0.0718    2.8413   -5.4508 H         1 <0>         0.1364
     29 H5         -0.8348    3.4040   -3.9444 H         1 <0>         0.1236
     30 H6         -1.8807    0.6707   -6.0835 H         1 <0>         0.1362
     31 H7         -3.2149    1.5649   -6.8508 H         1 <0>         0.1320
     32 H8         -1.5114    3.0950   -7.8980 H         1 <0>         0.0805
     33 H9         -0.2283    2.0582   -7.2294 H         1 <0>         0.0822
     34 H10        -1.3625    1.4047   -8.4356 H         1 <0>         0.1113
     35 H11        -3.0306    1.4759   -3.8534 H         1 <0>         0.1419
     36 H12        -4.1860    2.2845   -4.9395 H         1 <0>         0.1401
     37 H13        -3.5337    4.4831   -3.9964 H         1 <0>         0.1041
     38 H14        -2.3784    3.6745   -2.9104 H         1 <0>         0.1036
     39 H15        -4.1976    2.4560   -1.8149 H         1 <0>         0.1301
     40 H16        -5.3794    3.1268   -2.9646 H         1 <0>         0.1368
     41 H17        -6.1820    5.5837   -2.5877 H         1 <0>         0.2668
     42 H18        -4.0151    2.1447    0.2788 H         1 <0>         0.1412
     43 H19        -2.2013    0.8341    1.2986 H         1 <0>         0.1720
     44 H20         0.3588    4.1020    1.2500 H         1 <0>         0.1731
     45 H21        -1.3658    5.5331    0.2374 H         1 <0>         0.1458
     46 H22        -3.5731    4.9134    2.3764 H         1 <0>         0.1374
     47 H23        -2.8084    6.1144    4.3819 H         1 <0>         0.1543
     48 H24        -3.4301    9.8463    2.4018 H         1 <0>         0.1553
     49 H25        -4.1893    8.6596    0.3858 H         1 <0>         0.1377
     50 N3         -2.1648    2.6557   -5.3899 N.4       1 <0>        -0.3950
     51 H26        -2.3127    3.5841   -5.8029 H         1 <0>         0.4291
     52 N4         -5.3439    6.3926   -0.8171 N.pl3     1 <0>        -0.4752
     53 H27        -5.8853    7.2607   -0.7307 H         1 <0>         0.4862
@<TRIPOS>BOND
     1    1    2 1
     2    1   25 1
     3    1   26 1
     4    1   27 1
     5    2   28 1
     6    2   29 1
     7    2   50 1
     8    3    4 1
     9    3   30 1
    10    3   31 1
    11    3   50 1
    12    4   32 1
    13    4   33 1
    14    4   34 1
    15    5    6 1
    16    5   35 1
    17    5   36 1
    18    5   50 1
    19    6    7 1
    20    6   37 1
    21    6   38 1
    22    7    8 1
    23    7   39 1
    24    7   40 1
    25    8   11 1
    26    8    9 1
    27    9   41 1
    28    9   52 2
    29   10   11 2
    30   10   18 1
    31   10   52 1
    32   11   12 1
    33   12   17 ar
    34   12   13 ar
    35   13   14 ar
    36   13   42 1
    37   14   15 ar
    38   14   43 1
    39   15   16 ar
    40   16   17 ar
    41   16   44 1
    42   17   45 1
    43   18   23 ar
    44   18   19 ar
    45   19   20 ar
    46   19   46 1
    47   20   21 ar
    48   20   47 1
    49   21   22 ar
    50   21   24 1
    51   22   23 ar
    52   22   48 1
    53   23   49 1
    54   50   51 1
    55   52   53 1
@<TRIPOS>MOLECULE
ZINC03815750
   43    45     0     0     0
SMALL
USER_CHARGES

@<TRIPOS>ATOM
      1 C1         -1.4068    2.4957   -7.6474 C.3       1 <0>         0.0349
      2 O1         -2.2323    1.9995   -6.5608 O.3       1 <0>        -0.3596
      3 C2         -2.2090    2.6933   -5.4120 C.2       1 <0>         0.4596
      4 O2         -1.5216    3.6824   -5.3174 O.2       1 <0>        -0.5034
      5 C3         -3.0402    2.2385   -4.2401 C.3       1 <0>        -0.1111
      6 C4         -2.8332    3.1968   -3.0655 C.3       1 <0>        -0.1262
      7 C5         -3.6770    2.7351   -1.8757 C.3       1 <0>         0.1010
      8 N1         -3.5714    3.7156   -0.7923 N.pl3     1 <0>        -0.4447
      9 C6         -4.4407    4.7146   -0.5305 C.2       1 <0>         0.2040
     10 N2         -4.0270    5.3935    0.5033 N.2       1 <0>        -0.4758
     11 C7         -2.8775    4.8637    0.9597 C.2       1 <0>         0.0723
     12 C8         -2.5684    3.7868    0.1481 C.2       1 <0>         0.0162
     13 C9         -1.3965    2.8976    0.2632 C.ar      1 <0>         0.0313
     14 C10        -1.5526    1.5078    0.3520 C.ar      1 <0>        -0.1679
     15 C11        -0.4302    0.7154    0.4628 C.ar      1 <0>         0.1056
     16 N3          0.7774    1.2482    0.4759 N.ar      1 <0>        -0.4799
     17 C12         0.9699    2.5512    0.3896 C.ar      1 <0>         0.1077
     18 C13        -0.0957    3.4187    0.2811 C.ar      1 <0>        -0.1447
     19 C14        -2.0887    5.3444    2.1180 C.ar      1 <0>        -0.0162
     20 C15        -1.4192    4.4336    2.9349 C.ar      1 <0>        -0.0738
     21 C16        -0.6824    4.8865    4.0096 C.ar      1 <0>        -0.1514
     22 C17        -0.6151    6.2430    4.2841 C.ar      1 <0>         0.1022
     23 C18        -1.2825    7.1515    3.4782 C.ar      1 <0>        -0.1527
     24 C19        -2.0179    6.7088    2.3983 C.ar      1 <0>        -0.0615
     25 F1          0.1031    6.6813    5.3411 F         1 <0>        -0.1383
     26 H1         -0.3629    2.5084   -7.3341 H         1 <0>         0.0645
     27 H2         -1.5180    1.8447   -8.5146 H         1 <0>         0.1045
     28 H3         -1.7199    3.5064   -7.9092 H         1 <0>         0.0646
     29 H4         -2.7360    1.2336   -3.9471 H         1 <0>         0.1113
     30 H5         -4.0930    2.2316   -4.5222 H         1 <0>         0.1130
     31 H6         -3.1374    4.2017   -3.3585 H         1 <0>         0.0846
     32 H7         -1.7804    3.2037   -2.7833 H         1 <0>         0.0810
     33 H8         -3.3150    1.7679   -1.5270 H         1 <0>         0.0965
     34 H9         -4.7189    2.6438   -2.1828 H         1 <0>         0.1061
     35 H10        -5.3387    4.9224   -1.0933 H         1 <0>         0.2124
     36 H11        -2.5374    1.0646    0.3378 H         1 <0>         0.1337
     37 H12        -0.5401   -0.3565    0.5355 H         1 <0>         0.1595
     38 H13         1.9762    2.9429    0.4040 H         1 <0>         0.1608
     39 H14         0.0693    4.4838    0.2113 H         1 <0>         0.1381
     40 H15        -1.4744    3.3758    2.7242 H         1 <0>         0.1278
     41 H16        -0.1606    4.1823    4.6406 H         1 <0>         0.1372
     42 H17        -1.2270    8.2078    3.6961 H         1 <0>         0.1389
     43 H18        -2.5382    7.4175    1.7712 H         1 <0>         0.1382
@<TRIPOS>BOND
     1    1    2 1
     2    1   26 1
     3    1   27 1
     4    1   28 1
     5    2    3 1
     6    3    4 2
     7    3    5 1
     8    5    6 1
     9    5   29 1
    10    5   30 1
    11    6    7 1
    12    6   31 1
    13    6   32 1
    14    7    8 1
    15    7   33 1
    16    7   34 1
    17    8   12 1
    18    8    9 1
    19    9   10 2
    20    9   35 1
    21   10   11 1
    22   11   12 2
    23   11   19 1
    24   12   13 1
    25   13   18 ar
    26   13   14 ar
    27   14   15 ar
    28   14   36 1
    29   15   16 ar
    30   15   37 1
    31   16   17 ar
    32   17   18 ar
    33   17   38 1
    34   18   39 1
    35   19   24 ar
    36   19   20 ar
    37   20   21 ar
    38   20   40 1
    39   21   22 ar
    40   21   41 1
    41   22   23 ar
    42   22   25 1
    43   23   24 ar
    44   23   42 1
    45   24   43 1
@<TRIPOS>MOLECULE
ZINC03815750
   44    46     0     0     0
SMALL
USER_CHARGES

@<TRIPOS>ATOM
      1 C1         -1.4068    2.4957   -7.6474 C.3       1 <0>         0.0347
      2 O1         -2.2323    1.9995   -6.5608 O.3       1 <0>        -0.3556
      3 C2         -2.2090    2.6933   -5.4120 C.2       1 <0>         0.4603
      4 O2         -1.5216    3.6824   -5.3174 O.2       1 <0>        -0.5058
      5 C3         -3.0402    2.2385   -4.2401 C.3       1 <0>        -0.1131
      6 C4         -2.8332    3.1968   -3.0655 C.3       1 <0>        -0.1309
      7 C5         -3.6770    2.7351   -1.8757 C.3       1 <0>         0.0882
      8 N1         -3.5714    3.7156   -0.7923 N.pl3     1 <0>        -0.3975
      9 C6         -4.4407    4.7146   -0.5305 C.cat     1 <0>         0.2997
     10 C7         -2.8775    4.8637    0.9597 C.2       1 <0>         0.1109
     11 C8         -2.5684    3.7868    0.1481 C.2       1 <0>         0.1024
     12 C9         -1.3965    2.8976    0.2632 C.ar      1 <0>        -0.0169
     13 C10        -1.5526    1.5078    0.3520 C.ar      1 <0>        -0.1522
     14 C11        -0.4302    0.7154    0.4628 C.ar      1 <0>         0.1165
     15 N2          0.7774    1.2482    0.4759 N.ar      1 <0>        -0.4582
     16 C12         0.9699    2.5512    0.3896 C.ar      1 <0>         0.1180
     17 C13        -0.0957    3.4187    0.2811 C.ar      1 <0>        -0.1312
     18 C14        -2.0887    5.3444    2.1180 C.ar      1 <0>        -0.0817
     19 C15        -1.4192    4.4336    2.9349 C.ar      1 <0>        -0.0460
     20 C16        -0.6824    4.8865    4.0096 C.ar      1 <0>        -0.1463
     21 C17        -0.6151    6.2430    4.2841 C.ar      1 <0>         0.1417
     22 C18        -1.2825    7.1515    3.4782 C.ar      1 <0>        -0.1469
     23 C19        -2.0179    6.7088    2.3983 C.ar      1 <0>        -0.0630
     24 F1          0.1031    6.6813    5.3411 F         1 <0>        -0.1210
     25 H1         -0.3629    2.5084   -7.3341 H         1 <0>         0.0670
     26 H2         -1.5180    1.8447   -8.5146 H         1 <0>         0.1090
     27 H3         -1.7199    3.5064   -7.9092 H         1 <0>         0.0670
     28 H4         -2.7360    1.2336   -3.9471 H         1 <0>         0.1169
     29 H5         -4.0930    2.2316   -4.5222 H         1 <0>         0.1180
     30 H6         -3.1374    4.2017   -3.3585 H         1 <0>         0.0912
     31 H7         -1.7804    3.2037   -2.7833 H         1 <0>         0.0904
     32 H8         -3.3150    1.7679   -1.5270 H         1 <0>         0.1245
     33 H9         -4.7189    2.6438   -2.1828 H         1 <0>         0.1320
     34 H10        -5.3387    4.9224   -1.0933 H         1 <0>         0.2657
     35 H11        -2.5374    1.0646    0.3378 H         1 <0>         0.1418
     36 H12        -0.5401   -0.3565    0.5355 H         1 <0>         0.1707
     37 H13         1.9762    2.9429    0.4040 H         1 <0>         0.1712
     38 H14         0.0693    4.4838    0.2113 H         1 <0>         0.1449
     39 H15        -1.4744    3.3758    2.7242 H         1 <0>         0.1386
     40 H16        -0.1606    4.1823    4.6406 H         1 <0>         0.1520
     41 H17        -1.2270    8.2078    3.6961 H         1 <0>         0.1523
     42 H18        -2.5382    7.4175    1.7712 H         1 <0>         0.1376
     43 N3         -4.0273    5.3940    0.5035 N.pl3     1 <0>        -0.4789
     44 H19        -4.5055    6.2080    0.9073 H         1 <0>         0.4819
@<TRIPOS>BOND
     1    1    2 1
     2    1   25 1
     3    1   26 1
     4    1   27 1
     5    2    3 1
     6    3    4 2
     7    3    5 1
     8    5    6 1
     9    5   28 1
    10    5   29 1
    11    6    7 1
    12    6   30 1
    13    6   31 1
    14    7    8 1
    15    7   32 1
    16    7   33 1
    17    8   11 1
    18    8    9 1
    19    9   34 1
    20    9   43 2
    21   10   11 2
    22   10   18 1
    23   10   43 1
    24   11   12 1
    25   12   17 ar
    26   12   13 ar
    27   13   14 ar
    28   13   35 1
    29   14   15 ar
    30   14   36 1
    31   15   16 ar
    32   16   17 ar
    33   16   37 1
    34   17   38 1
    35   18   23 ar
    36   18   19 ar
    37   19   20 ar
    38   19   39 1
    39   20   21 ar
    40   20   40 1
    41   21   22 ar
    42   21   24 1
    43   22   23 ar
    44   22   41 1
    45   23   42 1
    46   43   44 1
@<TRIPOS>MOLECULE
ZINC03815751
   55    58     0     0     0
SMALL
USER_CHARGES

@<TRIPOS>ATOM
      1 C1          1.9202   -0.8941    0.6283 C.3       1 <0>        -0.1460
      2 S1          2.4774    0.8300    0.5400 S.3       1 <0>        -0.1101
      3 C2          0.9834    1.7544    0.4054 C.ar      1 <0>        -0.0804
      4 C3         -0.2424    1.0973    0.3897 C.ar      1 <0>        -0.1250
      5 C4         -1.4158    1.8182    0.2781 C.ar      1 <0>        -0.0964
      6 C5         -1.3795    3.1958    0.1929 C.ar      1 <0>        -0.1081
      7 C6         -0.1552    3.8641    0.2077 C.ar      1 <0>         0.0009
      8 C7          1.0292    3.1378    0.3145 C.ar      1 <0>        -0.0680
      9 C8         -0.1142    5.3419    0.1108 C.2       1 <0>         0.0901
     10 C9         -0.9720    6.1388   -0.6262 C.2       1 <0>         0.0082
     11 N1         -0.5622    7.4363   -0.4193 N.pl3     1 <0>        -0.4554
     12 C10         0.5007    7.3954    0.4120 C.2       1 <0>         0.2047
     13 N2          0.7604    6.1572    0.7279 N.2       1 <0>        -0.4670
     14 C11        -1.1680    8.6397   -0.9947 C.3       1 <0>         0.1113
     15 C12        -2.2365    9.1785   -0.0414 C.3       1 <0>        -0.1749
     16 C13        -2.9504   10.3644   -0.6933 C.3       1 <0>        -0.0013
     17 C14        -5.0520    9.8988    0.4175 C.3       1 <0>        -0.0448
     18 C15        -6.0662   10.4531    1.4215 C.3       1 <0>         0.0353
     19 O1         -6.5599   11.7092    0.9487 O.3       1 <0>        -0.3548
     20 C16        -5.5389   12.6904    0.7479 C.3       1 <0>         0.0340
     21 C17        -4.5194   12.1588   -0.2630 C.3       1 <0>        -0.0384
     22 C18        -2.0996    5.6883   -1.4649 C.ar      1 <0>         0.0332
     23 C19        -1.9009    4.7752   -2.5091 C.ar      1 <0>        -0.1400
     24 C20        -2.9838    4.3779   -3.2639 C.ar      1 <0>         0.1166
     25 N3         -4.1909    4.8531   -3.0207 N.ar      1 <0>        -0.4752
     26 C21        -4.4215    5.7182   -2.0508 C.ar      1 <0>         0.1044
     27 C22        -3.3981    6.1660   -1.2432 C.ar      1 <0>        -0.1787
     28 H1          2.7853   -1.5515    0.7144 H         1 <0>         0.1130
     29 H2          1.2771   -1.0239    1.4987 H         1 <0>         0.0856
     30 H3          1.3634   -1.1427   -0.2752 H         1 <0>         0.0856
     31 H4         -0.2768    0.0201    0.4605 H         1 <0>         0.1272
     32 H5         -2.3647    1.3027    0.2619 H         1 <0>         0.1292
     33 H6         -2.2992    3.7559    0.1106 H         1 <0>         0.1180
     34 H7          1.9798    3.6503    0.3261 H         1 <0>         0.1338
     35 H8          1.0493    8.2564    0.7644 H         1 <0>         0.2138
     36 H9         -0.3990    9.3976   -1.1443 H         1 <0>         0.1112
     37 H10        -1.6264    8.3933   -1.9524 H         1 <0>         0.1025
     38 H11        -2.9603    8.3927    0.1746 H         1 <0>         0.0952
     39 H12        -1.7653    9.5033    0.8863 H         1 <0>         0.1004
     40 H13        -2.2265   11.1502   -0.9092 H         1 <0>         0.1384
     41 H14        -3.4216   10.0395   -1.6209 H         1 <0>         0.1372
     42 H15        -5.5485    9.7086   -0.5341 H         1 <0>         0.1432
     43 H16        -4.6307    8.9696    0.8010 H         1 <0>         0.1382
     44 H17        -5.5822   10.5928    2.3882 H         1 <0>         0.0815
     45 H18        -6.8947    9.7528    1.5271 H         1 <0>         0.1431
     46 H19        -5.0397   12.8952    1.6950 H         1 <0>         0.0817
     47 H20        -5.9861   13.6080    0.3656 H         1 <0>         0.1434
     48 H21        -3.7094   12.8793   -0.3761 H         1 <0>         0.1426
     49 H22        -5.0074   12.0048   -1.2254 H         1 <0>         0.1419
     50 H23        -0.9152    4.3857   -2.7168 H         1 <0>         0.1417
     51 H24        -2.8417    3.6717   -4.0686 H         1 <0>         0.1654
     52 H25        -5.4258    6.0804   -1.8880 H         1 <0>         0.1568
     53 H26        -3.5942    6.8740   -0.4515 H         1 <0>         0.1228
     54 N4         -3.9658   10.8869    0.2466 N.4       1 <0>        -0.3956
     55 H27        -3.5220   11.0565    1.1568 H         1 <0>         0.4279
@<TRIPOS>BOND
     1    1    2 1
     2    1   28 1
     3    1   29 1
     4    1   30 1
     5    2    3 1
     6    3    8 ar
     7    3    4 ar
     8    4    5 ar
     9    4   31 1
    10    5    6 ar
    11    5   32 1
    12    6    7 ar
    13    6   33 1
    14    7    8 ar
    15    7    9 1
    16    8   34 1
    17    9   13 1
    18    9   10 2
    19   10   11 1
    20   10   22 1
    21   11   12 1
    22   11   14 1
    23   12   13 2
    24   12   35 1
    25   14   15 1
    26   14   36 1
    27   14   37 1
    28   15   16 1
    29   15   38 1
    30   15   39 1
    31   16   40 1
    32   16   41 1
    33   16   54 1
    34   17   18 1
    35   17   42 1
    36   17   43 1
    37   17   54 1
    38   18   19 1
    39   18   44 1
    40   18   45 1
    41   19   20 1
    42   20   21 1
    43   20   46 1
    44   20   47 1
    45   21   48 1
    46   21   49 1
    47   21   54 1
    48   22   27 ar
    49   22   23 ar
    50   23   24 ar
    51   23   50 1
    52   24   25 ar
    53   24   51 1
    54   25   26 ar
    55   26   27 ar
    56   26   52 1
    57   27   53 1
    58   54   55 1
@<TRIPOS>MOLECULE
ZINC03815751
   56    59     0     0     0
SMALL
USER_CHARGES

@<TRIPOS>ATOM
      1 C1          1.9202   -0.8941    0.6283 C.3       1 <0>        -0.1500
      2 S1          2.4774    0.8300    0.5400 S.3       1 <0>        -0.0895
      3 C2          0.9834    1.7544    0.4054 C.ar      1 <0>        -0.0748
      4 C3         -0.2424    1.0973    0.3897 C.ar      1 <0>        -0.0981
      5 C4         -1.4158    1.8182    0.2781 C.ar      1 <0>        -0.0850
      6 C5         -1.3795    3.1958    0.1929 C.ar      1 <0>        -0.0873
      7 C6         -0.1552    3.8641    0.2077 C.ar      1 <0>        -0.0570
      8 C7          1.0292    3.1378    0.3145 C.ar      1 <0>        -0.0787
      9 C8         -0.1142    5.3419    0.1108 C.2       1 <0>         0.1277
     10 C9         -0.9720    6.1388   -0.6262 C.2       1 <0>         0.0939
     11 N1         -0.5622    7.4363   -0.4193 N.pl3     1 <0>        -0.4082
     12 C10         0.5007    7.3954    0.4120 C.cat     1 <0>         0.2997
     13 C11        -1.1680    8.6397   -0.9947 C.3       1 <0>         0.0990
     14 C12        -2.2365    9.1785   -0.0414 C.3       1 <0>        -0.1810
     15 C13        -2.9504   10.3644   -0.6933 C.3       1 <0>        -0.0018
     16 C14        -5.0520    9.8988    0.4175 C.3       1 <0>        -0.0454
     17 C15        -6.0662   10.4531    1.4215 C.3       1 <0>         0.0341
     18 O1         -6.5599   11.7092    0.9487 O.3       1 <0>        -0.3510
     19 C16        -5.5389   12.6904    0.7479 C.3       1 <0>         0.0329
     20 C17        -4.5194   12.1588   -0.2630 C.3       1 <0>        -0.0387
     21 C18        -2.0996    5.6883   -1.4649 C.ar      1 <0>        -0.0145
     22 C19        -1.9009    4.7752   -2.5091 C.ar      1 <0>        -0.1253
     23 C20        -2.9838    4.3779   -3.2639 C.ar      1 <0>         0.1271
     24 N2         -4.1909    4.8531   -3.0207 N.ar      1 <0>        -0.4537
     25 C21        -4.4215    5.7182   -2.0508 C.ar      1 <0>         0.1151
     26 C22        -3.3981    6.1660   -1.2432 C.ar      1 <0>        -0.1638
     27 H1          2.7853   -1.5515    0.7144 H         1 <0>         0.1216
     28 H2          1.2771   -1.0239    1.4987 H         1 <0>         0.0913
     29 H3          1.3634   -1.1427   -0.2752 H         1 <0>         0.0916
     30 H4         -0.2768    0.0201    0.4605 H         1 <0>         0.1398
     31 H5         -2.3647    1.3027    0.2619 H         1 <0>         0.1431
     32 H6         -2.2992    3.7559    0.1106 H         1 <0>         0.1282
     33 H7          1.9798    3.6503    0.3261 H         1 <0>         0.1323
     34 H8          1.0493    8.2564    0.7644 H         1 <0>         0.2668
     35 H9         -0.3990    9.3976   -1.1443 H         1 <0>         0.1379
     36 H10        -1.6264    8.3933   -1.9524 H         1 <0>         0.1312
     37 H11        -2.9603    8.3927    0.1746 H         1 <0>         0.1015
     38 H12        -1.7653    9.5033    0.8863 H         1 <0>         0.1082
     39 H13        -2.2265   11.1502   -0.9092 H         1 <0>         0.1437
     40 H14        -3.4216   10.0395   -1.6209 H         1 <0>         0.1423
     41 H15        -5.5485    9.7086   -0.5341 H         1 <0>         0.1456
     42 H16        -4.6307    8.9696    0.8010 H         1 <0>         0.1345
     43 H17        -5.5822   10.5928    2.3882 H         1 <0>         0.0821
     44 H18        -6.8947    9.7528    1.5271 H         1 <0>         0.1448
     45 H19        -5.0397   12.8952    1.6950 H         1 <0>         0.0834
     46 H20        -5.9861   13.6080    0.3656 H         1 <0>         0.1472
     47 H21        -3.7094   12.8793   -0.3761 H         1 <0>         0.1452
     48 H22        -5.0074   12.0048   -1.2254 H         1 <0>         0.1448
     49 H23        -0.9152    4.3857   -2.7168 H         1 <0>         0.1486
     50 H24        -2.8417    3.6717   -4.0686 H         1 <0>         0.1757
     51 H25        -5.4258    6.0804   -1.8880 H         1 <0>         0.1679
     52 H26        -3.5942    6.8740   -0.4515 H         1 <0>         0.1298
     53 N3         -3.9658   10.8869    0.2466 N.4       1 <0>        -0.3961
     54 H27        -3.5220   11.0565    1.1568 H         1 <0>         0.4284
     55 N4          0.7608    6.1570    0.7282 N.pl3     1 <0>        -0.4741
     56 H28         1.5167    5.8512    1.3522 H         1 <0>         0.4867
@<TRIPOS>BOND
     1    1    2 1
     2    1   27 1
     3    1   28 1
     4    1   29 1
     5    2    3 1
     6    3    8 ar
     7    3    4 ar
     8    4    5 ar
     9    4   30 1
    10    5    6 ar
    11    5   31 1
    12    6    7 ar
    13    6   32 1
    14    7    8 ar
    15    7    9 1
    16    8   33 1
    17    9   10 2
    18    9   55 1
    19   10   11 1
    20   10   21 1
    21   11   12 1
    22   11   13 1
    23   12   34 1
    24   12   55 2
    25   13   14 1
    26   13   35 1
    27   13   36 1
    28   14   15 1
    29   14   37 1
    30   14   38 1
    31   15   39 1
    32   15   40 1
    33   15   53 1
    34   16   17 1
    35   16   41 1
    36   16   42 1
    37   16   53 1
    38   17   18 1
    39   17   43 1
    40   17   44 1
    41   18   19 1
    42   19   20 1
    43   19   45 1
    44   19   46 1
    45   20   47 1
    46   20   48 1
    47   20   53 1
    48   21   26 ar
    49   21   22 ar
    50   22   23 ar
    51   22   49 1
    52   23   24 ar
    53   23   50 1
    54   24   25 ar
    55   25   26 ar
    56   25   51 1
    57   26   52 1
    58   53   54 1
    59   55   56 1
@<TRIPOS>MOLECULE
ZINC03815752
   42    45     0     0     0
SMALL
USER_CHARGES

@<TRIPOS>ATOM
      1 C1         -2.9991   -0.7596   -5.3138 C.3       1 <0>         0.0245
      2 O1         -4.1641   -0.4135   -4.5621 O.3       1 <0>        -0.3145
      3 C2         -4.0304    0.5714   -3.6356 C.ar      1 <0>         0.1388
      4 C3         -5.1235    0.9561   -2.8710 C.ar      1 <0>        -0.1463
      5 C4         -4.9914    1.9552   -1.9299 C.ar      1 <0>        -0.0719
      6 C5         -3.7578    2.5795   -1.7465 C.ar      1 <0>        -0.0646
      7 C6         -2.6629    2.1941   -2.5199 C.ar      1 <0>        -0.0472
      8 C7         -2.8010    1.1910   -3.4558 C.ar      1 <0>        -0.2011
      9 C8         -3.6120    3.6537   -0.7365 C.2       1 <0>         0.0409
     10 C9         -2.4935    3.8943    0.0449 C.2       1 <0>         0.0496
     11 N1         -2.7993    4.9785    0.8370 N.2       1 <0>        -0.4491
     12 H1         -5.4543    4.6271   -0.8147 H         1 <0>         0.4281
     13 C10        -4.0704    5.3606    0.5225 C.2       1 <0>         0.2341
     14 N2         -4.5420    4.5642   -0.4101 N.pl3     1 <0>        -0.5090
     15 C11        -4.8011    6.4911    1.1339 C.ar      1 <0>        -0.0193
     16 C12        -4.1918    7.2682    2.1203 C.ar      1 <0>        -0.0756
     17 C13        -4.8771    8.3255    2.6823 C.ar      1 <0>        -0.1158
     18 C14        -6.1699    8.6086    2.2789 C.ar      1 <0>        -0.1081
     19 C15        -6.7818    7.8387    1.3057 C.ar      1 <0>        -0.1143
     20 C16        -6.1054    6.7824    0.7312 C.ar      1 <0>        -0.1135
     21 C17        -1.2259    3.1408    0.0293 C.ar      1 <0>         0.0451
     22 C18        -1.2208    1.7390    0.0173 C.ar      1 <0>        -0.1537
     23 C19        -0.0126    1.0758    0.0080 C.ar      1 <0>         0.0999
     24 N3          1.1269    1.7422    0.0007 N.ar      1 <0>        -0.4844
     25 C20         1.1678    3.0616    0.0069 C.ar      1 <0>         0.1000
     26 C21         0.0080    3.8061    0.0211 C.ar      1 <0>        -0.1482
     27 H2         -2.6485    0.1139   -5.8634 H         1 <0>         0.0577
     28 H3         -2.2167   -1.1000   -4.6353 H         1 <0>         0.0589
     29 H4         -3.2432   -1.5568   -6.0160 H         1 <0>         0.1034
     30 H5         -6.0785    0.4720   -3.0133 H         1 <0>         0.1365
     31 H6         -5.8423    2.2541   -1.3357 H         1 <0>         0.1268
     32 H7         -1.7073    2.6785   -2.3835 H         1 <0>         0.1282
     33 H8         -1.9527    0.8896   -4.0525 H         1 <0>         0.1346
     34 H9         -3.1846    7.0451    2.4397 H         1 <0>         0.1377
     35 H10        -4.4050    8.9306    3.4422 H         1 <0>         0.1307
     36 H11        -6.7038    9.4345    2.7255 H         1 <0>         0.1275
     37 H12        -7.7912    8.0649    0.9953 H         1 <0>         0.1289
     38 H13        -6.5840    6.1824   -0.0286 H         1 <0>         0.1172
     39 H14        -2.1492    1.1872    0.0188 H         1 <0>         0.1342
     40 H15         0.0021   -0.0041    0.0020 H         1 <0>         0.1570
     41 H16         2.1235    3.5647    0.0005 H         1 <0>         0.1583
     42 H17         0.0492    4.8853    0.0261 H         1 <0>         0.1378
@<TRIPOS>BOND
     1    1    2 1
     2    1   27 1
     3    1   28 1
     4    1   29 1
     5    2    3 1
     6    3    8 ar
     7    3    4 ar
     8    4    5 ar
     9    4   30 1
    10    5    6 ar
    11    5   31 1
    12    6    7 ar
    13    6    9 1
    14    7    8 ar
    15    7   32 1
    16    8   33 1
    17    9   14 1
    18    9   10 2
    19   10   11 1
    20   10   21 1
    21   11   13 2
    22   12   14 1
    23   13   15 1
    24   13   14 1
    25   15   20 ar
    26   15   16 ar
    27   16   17 ar
    28   16   34 1
    29   17   18 ar
    30   17   35 1
    31   18   19 ar
    32   18   36 1
    33   19   20 ar
    34   19   37 1
    35   20   38 1
    36   21   26 ar
    37   21   22 ar
    38   22   23 ar
    39   22   39 1
    40   23   24 ar
    41   23   40 1
    42   24   25 ar
    43   25   26 ar
    44   25   41 1
    45   26   42 1
@<TRIPOS>MOLECULE
ZINC03815752
   43    46     0     0     0
SMALL
USER_CHARGES

@<TRIPOS>ATOM
      1 C1         -3.0120   -0.7837   -5.2908 C.3       1 <0>         0.0199
      2 O1         -4.1758   -0.4335   -4.5391 O.3       1 <0>        -0.3052
      3 C2         -4.0400    0.5549   -3.6166 C.ar      1 <0>         0.1714
      4 C3         -5.1319    0.9437   -2.8523 C.ar      1 <0>        -0.1462
      5 C4         -4.9977    1.9464   -1.9153 C.ar      1 <0>        -0.0508
      6 C5         -3.7632    2.5702   -1.7358 C.ar      1 <0>        -0.1165
      7 C6         -2.6696    2.1807   -2.5090 C.ar      1 <0>        -0.0304
      8 C7         -2.8098    1.1740   -3.4408 C.ar      1 <0>        -0.2043
      9 C8         -3.6152    3.6483   -0.7303 C.2       1 <0>         0.1275
     10 C9         -2.4935    3.8943    0.0449 C.2       1 <0>         0.1025
     11 N1         -2.7993    4.9785    0.8370 N.pl3     1 <0>        -0.5074
     12 H1         -2.2016    5.4056    1.5155 H         1 <0>         0.4702
     13 C10        -4.0704    5.3606    0.5225 C.cat     1 <0>         0.3893
     14 C11        -4.8011    6.4911    1.1339 C.ar      1 <0>        -0.0933
     15 C12        -4.1918    7.2682    2.1203 C.ar      1 <0>        -0.0733
     16 C13        -4.8771    8.3255    2.6823 C.ar      1 <0>        -0.1061
     17 C14        -6.1699    8.6086    2.2789 C.ar      1 <0>        -0.0648
     18 C15        -6.7818    7.8387    1.3057 C.ar      1 <0>        -0.1054
     19 C16        -6.1054    6.7824    0.7312 C.ar      1 <0>        -0.0756
     20 C17        -1.2259    3.1408    0.0293 C.ar      1 <0>        -0.0155
     21 C18        -1.2208    1.7390    0.0173 C.ar      1 <0>        -0.1314
     22 C19        -0.0126    1.0758    0.0080 C.ar      1 <0>         0.1153
     23 N2          1.1269    1.7422    0.0007 N.ar      1 <0>        -0.4595
     24 C20         1.1678    3.0616    0.0069 C.ar      1 <0>         0.1157
     25 C21         0.0080    3.8061    0.0211 C.ar      1 <0>        -0.1502
     26 H2         -2.6612    0.0873   -5.8443 H         1 <0>         0.0629
     27 H3         -2.2292   -1.1222   -4.6119 H         1 <0>         0.0636
     28 H4         -3.2578   -1.5834   -5.9895 H         1 <0>         0.1116
     29 H5         -6.0875    0.4600   -2.9915 H         1 <0>         0.1474
     30 H6         -5.8476    2.2485   -1.3213 H         1 <0>         0.1334
     31 H7         -1.7134    2.6647   -2.3757 H         1 <0>         0.1323
     32 H8         -1.9625    0.8694   -4.0373 H         1 <0>         0.1442
     33 H9         -3.1846    7.0451    2.4397 H         1 <0>         0.1313
     34 H10        -4.4050    8.9306    3.4422 H         1 <0>         0.1468
     35 H11        -6.7038    9.4345    2.7255 H         1 <0>         0.1452
     36 H12        -7.7912    8.0649    0.9953 H         1 <0>         0.1472
     37 H13        -6.5840    6.1824   -0.0286 H         1 <0>         0.1316
     38 H14        -2.1492    1.1872    0.0188 H         1 <0>         0.1467
     39 H15         0.0021   -0.0041    0.0020 H         1 <0>         0.1710
     40 H16         2.1235    3.5647    0.0005 H         1 <0>         0.1706
     41 H17         0.0492    4.8853    0.0261 H         1 <0>         0.1414
     42 N3         -4.5445    4.5610   -0.4067 N.pl3     1 <0>        -0.4804
     43 H18        -5.4817    4.6249   -0.8212 H         1 <0>         0.4770
@<TRIPOS>BOND
     1    1    2 1
     2    1   26 1
     3    1   27 1
     4    1   28 1
     5    2    3 1
     6    3    8 ar
     7    3    4 ar
     8    4    5 ar
     9    4   29 1
    10    5    6 ar
    11    5   30 1
    12    6    7 ar
    13    6    9 1
    14    7    8 ar
    15    7   31 1
    16    8   32 1
    17    9   10 2
    18    9   42 1
    19   10   11 1
    20   10   20 1
    21   11   12 1
    22   11   13 1
    23   13   14 1
    24   13   42 2
    25   14   19 ar
    26   14   15 ar
    27   15   16 ar
    28   15   33 1
    29   16   17 ar
    30   16   34 1
    31   17   18 ar
    32   17   35 1
    33   18   19 ar
    34   18   36 1
    35   19   37 1
    36   20   25 ar
    37   20   21 ar
    38   21   22 ar
    39   21   38 1
    40   22   23 ar
    41   22   39 1
    42   23   24 ar
    43   24   25 ar
    44   24   40 1
    45   25   41 1
    46   42   43 1
@<TRIPOS>MOLECULE
ZINC03815752
   42    45     0     0     0
SMALL
USER_CHARGES

@<TRIPOS>ATOM
      1 C1         -2.9991   -0.7596   -5.3138 C.3       1 <0>         0.0245
      2 O1         -4.1641   -0.4135   -4.5621 O.3       1 <0>        -0.3145
      3 C2         -4.0304    0.5714   -3.6356 C.ar      1 <0>         0.1388
      4 C3         -5.1235    0.9561   -2.8710 C.ar      1 <0>        -0.1463
      5 C4         -4.9914    1.9552   -1.9299 C.ar      1 <0>        -0.0719
      6 C5         -3.7578    2.5795   -1.7465 C.ar      1 <0>        -0.0646
      7 C6         -2.6629    2.1941   -2.5199 C.ar      1 <0>        -0.0472
      8 C7         -2.8010    1.1910   -3.4558 C.ar      1 <0>        -0.2011
      9 C8         -3.6120    3.6537   -0.7365 C.2       1 <0>         0.0409
     10 C9         -2.4935    3.8943    0.0449 C.2       1 <0>         0.0496
     11 N1         -2.7993    4.9785    0.8370 N.2       1 <0>        -0.4491
     12 H1         -5.4543    4.6271   -0.8147 H         1 <0>         0.4281
     13 C10        -4.0704    5.3606    0.5225 C.2       1 <0>         0.2341
     14 N2         -4.5420    4.5642   -0.4101 N.pl3     1 <0>        -0.5090
     15 C11        -4.8011    6.4911    1.1339 C.ar      1 <0>        -0.0193
     16 C12        -4.1918    7.2682    2.1203 C.ar      1 <0>        -0.0756
     17 C13        -4.8771    8.3255    2.6823 C.ar      1 <0>        -0.1158
     18 C14        -6.1699    8.6086    2.2789 C.ar      1 <0>        -0.1081
     19 C15        -6.7818    7.8387    1.3057 C.ar      1 <0>        -0.1143
     20 C16        -6.1054    6.7824    0.7312 C.ar      1 <0>        -0.1135
     21 C17        -1.2259    3.1408    0.0293 C.ar      1 <0>         0.0451
     22 C18        -1.2208    1.7390    0.0173 C.ar      1 <0>        -0.1537
     23 C19        -0.0126    1.0758    0.0080 C.ar      1 <0>         0.0999
     24 N3          1.1269    1.7422    0.0007 N.ar      1 <0>        -0.4844
     25 C20         1.1678    3.0616    0.0069 C.ar      1 <0>         0.1000
     26 C21         0.0080    3.8061    0.0211 C.ar      1 <0>        -0.1482
     27 H2         -2.6485    0.1139   -5.8634 H         1 <0>         0.0577
     28 H3         -2.2167   -1.1000   -4.6353 H         1 <0>         0.0589
     29 H4         -3.2432   -1.5568   -6.0160 H         1 <0>         0.1034
     30 H5         -6.0785    0.4720   -3.0133 H         1 <0>         0.1365
     31 H6         -5.8423    2.2541   -1.3357 H         1 <0>         0.1268
     32 H7         -1.7073    2.6785   -2.3835 H         1 <0>         0.1282
     33 H8         -1.9527    0.8896   -4.0525 H         1 <0>         0.1346
     34 H9         -3.1846    7.0451    2.4397 H         1 <0>         0.1377
     35 H10        -4.4050    8.9306    3.4422 H         1 <0>         0.1307
     36 H11        -6.7038    9.4345    2.7255 H         1 <0>         0.1275
     37 H12        -7.7912    8.0649    0.9953 H         1 <0>         0.1289
     38 H13        -6.5840    6.1824   -0.0286 H         1 <0>         0.1172
     39 H14        -2.1492    1.1872    0.0188 H         1 <0>         0.1342
     40 H15         0.0021   -0.0041    0.0020 H         1 <0>         0.1570
     41 H16         2.1235    3.5647    0.0005 H         1 <0>         0.1583
     42 H17         0.0492    4.8853    0.0261 H         1 <0>         0.1378
@<TRIPOS>BOND
     1    1    2 1
     2    1   27 1
     3    1   28 1
     4    1   29 1
     5    2    3 1
     6    3    8 ar
     7    3    4 ar
     8    4    5 ar
     9    4   30 1
    10    5    6 ar
    11    5   31 1
    12    6    7 ar
    13    6    9 1
    14    7    8 ar
    15    7   32 1
    16    8   33 1
    17    9   14 1
    18    9   10 2
    19   10   11 1
    20   10   21 1
    21   11   13 2
    22   12   14 1
    23   13   15 1
    24   13   14 1
    25   15   20 ar
    26   15   16 ar
    27   16   17 ar
    28   16   34 1
    29   17   18 ar
    30   17   35 1
    31   18   19 ar
    32   18   36 1
    33   19   20 ar
    34   19   37 1
    35   20   38 1
    36   21   26 ar
    37   21   22 ar
    38   22   23 ar
    39   22   39 1
    40   23   24 ar
    41   23   40 1
    42   24   25 ar
    43   25   26 ar
    44   25   41 1
    45   26   42 1
@<TRIPOS>MOLECULE
ZINC03815753
   54    57     0     0     0
SMALL
USER_CHARGES

@<TRIPOS>ATOM
      1 C1          3.4441   -2.0654   -0.0669 C.3       1 <0>         0.0417
      2 O1          3.5204   -0.6388   -0.0377 O.3       1 <0>        -0.2812
      3 C2          2.3483    0.0402   -0.0546 C.ar      1 <0>         0.5180
      4 N1          1.2119   -0.6375   -0.0965 N.ar      1 <0>        -0.5664
      5 C3          0.0435   -0.0131   -0.1147 C.ar      1 <0>         0.2017
      6 C4          0.0144    1.3680   -0.0895 C.ar      1 <0>        -0.2817
      7 C5          1.2326    2.0593   -0.0453 C.ar      1 <0>         0.2908
      8 N2          2.3701    1.3611   -0.0292 N.ar      1 <0>        -0.5024
      9 C6          1.2574    3.5326   -0.0174 C.2       1 <0>         0.0040
     10 C7          2.2398    4.3380    0.5330 C.2       1 <0>         0.1337
     11 N3          1.8664    5.6152    0.3390 N.2       1 <0>        -0.4701
     12 C8          0.7247    5.6462   -0.2914 C.2       1 <0>         0.2069
     13 N4          0.3105    4.3867   -0.5392 N.pl3     1 <0>        -0.4518
     14 C9         -0.9207    3.9985   -1.2318 C.3       1 <0>         0.1067
     15 C10        -1.6139    5.2480   -1.7786 C.3       1 <0>        -0.1710
     16 C11        -2.9568    4.8563   -2.3983 C.3       1 <0>         0.0000
     17 C12        -4.0002    6.9682   -1.8341 C.3       1 <0>        -0.0443
     18 C13        -4.6348    8.2284   -2.4281 C.3       1 <0>         0.0344
     19 O2         -5.7549    7.8566   -3.2360 O.3       1 <0>        -0.3553
     20 C14        -5.4229    6.9690   -4.3070 C.3       1 <0>         0.0339
     21 C15        -4.7962    5.6960   -3.7320 C.3       1 <0>        -0.0383
     22 C16         3.4739    3.8777    1.2111 C.ar      1 <0>        -0.0308
     23 C17         3.4554    2.7186    1.9866 C.ar      1 <0>        -0.0362
     24 C18         4.6084    2.2912    2.6117 C.ar      1 <0>        -0.1539
     25 C19         5.7810    3.0174    2.4792 C.ar      1 <0>         0.1150
     26 C20         5.8032    4.1726    1.7141 C.ar      1 <0>        -0.1578
     27 C21         4.6567    4.6052    1.0808 C.ar      1 <0>        -0.0543
     28 F1          6.9063    2.5982    3.0983 F         1 <0>        -0.1358
     29 H1          2.8892   -2.4175    0.8027 H         1 <0>         0.0670
     30 H2          2.9345   -2.3835   -0.9764 H         1 <0>         0.0657
     31 H3          4.4506   -2.4835   -0.0493 H         1 <0>         0.1104
     32 H4         -0.8765   -0.5777   -0.1486 H         1 <0>         0.1770
     33 H5         -0.9242    1.9019   -0.1080 H         1 <0>         0.1430
     34 H6          0.1948    6.5432   -0.5758 H         1 <0>         0.2117
     35 H7         -0.6779    3.3276   -2.0559 H         1 <0>         0.1027
     36 H8         -1.5856    3.4903   -0.5335 H         1 <0>         0.1013
     37 H9         -1.7811    5.9555   -0.9665 H         1 <0>         0.1032
     38 H10        -0.9838    5.7097   -2.5389 H         1 <0>         0.1049
     39 H11        -2.7896    4.1487   -3.2104 H         1 <0>         0.1383
     40 H12        -3.5869    4.3945   -1.6381 H         1 <0>         0.1392
     41 H13        -4.7168    6.4744   -1.1779 H         1 <0>         0.1427
     42 H14        -3.1123    7.2419   -1.2641 H         1 <0>         0.1410
     43 H15        -3.9010    8.7509   -3.0418 H         1 <0>         0.0822
     44 H16        -4.9682    8.8831   -1.6229 H         1 <0>         0.1432
     45 H17        -4.7119    7.4549   -4.9753 H         1 <0>         0.0821
     46 H18        -6.3263    6.7121   -4.8602 H         1 <0>         0.1433
     47 H19        -4.4893    5.0410   -4.5475 H         1 <0>         0.1426
     48 H20        -5.5256    5.1819   -3.1062 H         1 <0>         0.1421
     49 H21         2.5408    2.1544    2.0941 H         1 <0>         0.1164
     50 H22         4.5960    1.3915    3.2091 H         1 <0>         0.1354
     51 H23         6.7196    4.7353    1.6138 H         1 <0>         0.1402
     52 H24         4.6748    5.5060    0.4853 H         1 <0>         0.1364
     53 N5         -3.6058    6.0701   -2.9395 N.4       1 <0>        -0.3961
     54 H25        -2.9402    6.5614   -3.5478 H         1 <0>         0.4285
@<TRIPOS>BOND
     1    1    2 1
     2    1   29 1
     3    1   30 1
     4    1   31 1
     5    2    3 1
     6    3    8 ar
     7    3    4 ar
     8    4    5 ar
     9    5    6 ar
    10    5   32 1
    11    6    7 ar
    12    6   33 1
    13    7    8 ar
    14    7    9 1
    15    9   13 1
    16    9   10 2
    17   10   11 1
    18   10   22 1
    19   11   12 2
    20   12   13 1
    21   12   34 1
    22   13   14 1
    23   14   15 1
    24   14   35 1
    25   14   36 1
    26   15   16 1
    27   15   37 1
    28   15   38 1
    29   16   39 1
    30   16   40 1
    31   16   53 1
    32   17   18 1
    33   17   41 1
    34   17   42 1
    35   17   53 1
    36   18   19 1
    37   18   43 1
    38   18   44 1
    39   19   20 1
    40   20   21 1
    41   20   45 1
    42   20   46 1
    43   21   47 1
    44   21   48 1
    45   21   53 1
    46   22   27 ar
    47   22   23 ar
    48   23   24 ar
    49   23   49 1
    50   24   25 ar
    51   24   50 1
    52   25   26 ar
    53   25   28 1
    54   26   27 ar
    55   26   51 1
    56   27   52 1
    57   53   54 1
@<TRIPOS>MOLECULE
ZINC03815753
   55    58     0     0     0
SMALL
USER_CHARGES

@<TRIPOS>ATOM
      1 C1          3.4441   -2.0654   -0.0669 C.3       1 <0>         0.0373
      2 O1          3.5204   -0.6388   -0.0377 O.3       1 <0>        -0.2763
      3 C2          2.3483    0.0402   -0.0546 C.ar      1 <0>         0.5276
      4 N1          1.2119   -0.6375   -0.0965 N.ar      1 <0>        -0.5436
      5 C3          0.0435   -0.0131   -0.1147 C.ar      1 <0>         0.2159
      6 C4          0.0144    1.3680   -0.0895 C.ar      1 <0>        -0.2642
      7 C5          1.2326    2.0593   -0.0453 C.ar      1 <0>         0.2526
      8 N2          2.3701    1.3611   -0.0292 N.ar      1 <0>        -0.4981
      9 C6          1.2574    3.5326   -0.0174 C.2       1 <0>         0.0871
     10 C7          2.2398    4.3380    0.5330 C.2       1 <0>         0.1707
     11 C8          0.7247    5.6462   -0.2914 C.cat     1 <0>         0.2887
     12 N3          0.3105    4.3867   -0.5392 N.pl3     1 <0>        -0.3978
     13 C9         -0.9207    3.9985   -1.2318 C.3       1 <0>         0.0927
     14 C10        -1.6139    5.2480   -1.7786 C.3       1 <0>        -0.1820
     15 C11        -2.9568    4.8563   -2.3983 C.3       1 <0>        -0.0007
     16 C12        -4.0002    6.9682   -1.8341 C.3       1 <0>        -0.0442
     17 C13        -4.6348    8.2284   -2.4281 C.3       1 <0>         0.0332
     18 O2         -5.7549    7.8566   -3.2360 O.3       1 <0>        -0.3513
     19 C14        -5.4229    6.9690   -4.3070 C.3       1 <0>         0.0327
     20 C15        -4.7962    5.6960   -3.7320 C.3       1 <0>        -0.0387
     21 C16         3.4739    3.8777    1.2111 C.ar      1 <0>        -0.0944
     22 C17         3.4554    2.7186    1.9866 C.ar      1 <0>        -0.0098
     23 C18         4.6084    2.2912    2.6117 C.ar      1 <0>        -0.1490
     24 C19         5.7810    3.0174    2.4792 C.ar      1 <0>         0.1548
     25 C20         5.8032    4.1726    1.7141 C.ar      1 <0>        -0.1515
     26 C21         4.6567    4.6052    1.0808 C.ar      1 <0>        -0.0554
     27 F1          6.9063    2.5982    3.0983 F         1 <0>        -0.1180
     28 H1          2.8892   -2.4175    0.8027 H         1 <0>         0.0728
     29 H2          2.9345   -2.3835   -0.9764 H         1 <0>         0.0718
     30 H3          4.4506   -2.4835   -0.0493 H         1 <0>         0.1181
     31 H4         -0.8765   -0.5777   -0.1486 H         1 <0>         0.1890
     32 H5         -0.9242    1.9019   -0.1080 H         1 <0>         0.1494
     33 H6          0.1948    6.5432   -0.5758 H         1 <0>         0.2623
     34 H7         -0.6779    3.3276   -2.0559 H         1 <0>         0.1345
     35 H8         -1.5856    3.4903   -0.5335 H         1 <0>         0.1327
     36 H9         -1.7811    5.9555   -0.9665 H         1 <0>         0.1079
     37 H10        -0.9838    5.7097   -2.5389 H         1 <0>         0.1130
     38 H11        -2.7896    4.1487   -3.2104 H         1 <0>         0.1440
     39 H12        -3.5869    4.3945   -1.6381 H         1 <0>         0.1446
     40 H13        -4.7168    6.4744   -1.1779 H         1 <0>         0.1452
     41 H14        -3.1123    7.2419   -1.2641 H         1 <0>         0.1361
     42 H15        -3.9010    8.7509   -3.0418 H         1 <0>         0.0825
     43 H16        -4.9682    8.8831   -1.6229 H         1 <0>         0.1446
     44 H17        -4.7119    7.4549   -4.9753 H         1 <0>         0.0839
     45 H18        -6.3263    6.7121   -4.8602 H         1 <0>         0.1473
     46 H19        -4.4893    5.0410   -4.5475 H         1 <0>         0.1455
     47 H20        -5.5256    5.1819   -3.1062 H         1 <0>         0.1451
     48 H21         2.5408    2.1544    2.0941 H         1 <0>         0.1271
     49 H22         4.5960    1.3915    3.2091 H         1 <0>         0.1503
     50 H23         6.7196    4.7353    1.6138 H         1 <0>         0.1539
     51 H24         4.6748    5.5060    0.4853 H         1 <0>         0.1363
     52 N4         -3.6058    6.0701   -2.9395 N.4       1 <0>        -0.3968
     53 H25        -2.9402    6.5614   -3.5478 H         1 <0>         0.4288
     54 N5          1.8668    5.6158    0.3392 N.pl3     1 <0>        -0.4758
     55 H26         2.3989    6.4404    0.6411 H         1 <0>         0.4875
@<TRIPOS>BOND
     1    1    2 1
     2    1   28 1
     3    1   29 1
     4    1   30 1
     5    2    3 1
     6    3    8 ar
     7    3    4 ar
     8    4    5 ar
     9    5    6 ar
    10    5   31 1
    11    6    7 ar
    12    6   32 1
    13    7    8 ar
    14    7    9 1
    15    9   12 1
    16    9   10 2
    17   10   21 1
    18   10   54 1
    19   11   12 1
    20   11   33 1
    21   11   54 2
    22   12   13 1
    23   13   14 1
    24   13   34 1
    25   13   35 1
    26   14   15 1
    27   14   36 1
    28   14   37 1
    29   15   38 1
    30   15   39 1
    31   15   52 1
    32   16   17 1
    33   16   40 1
    34   16   41 1
    35   16   52 1
    36   17   18 1
    37   17   42 1
    38   17   43 1
    39   18   19 1
    40   19   20 1
    41   19   44 1
    42   19   45 1
    43   20   46 1
    44   20   47 1
    45   20   52 1
    46   21   26 ar
    47   21   22 ar
    48   22   23 ar
    49   22   48 1
    50   23   24 ar
    51   23   49 1
    52   24   25 ar
    53   24   27 1
    54   25   26 ar
    55   25   50 1
    56   26   51 1
    57   52   53 1
    58   54   55 1
@<TRIPOS>MOLECULE
ZINC03815754
   51    54     0     0     0
SMALL
USER_CHARGES

@<TRIPOS>ATOM
      1 C1          3.4910    2.5456   -0.3638 C.ar      1 <0>        -0.0715
      2 C2          4.7945    2.1065   -0.2522 C.ar      1 <0>        -0.0949
      3 C3          5.0775    0.9369    0.4317 C.ar      1 <0>        -0.0249
      4 C4          4.0546    0.2005    1.0080 C.ar      1 <0>        -0.0307
      5 C5          2.7478    0.6343    0.9074 C.ar      1 <0>        -0.0843
      6 C6          2.4575    1.8093    0.2142 C.ar      1 <0>        -0.0005
      7 C7          1.0564    2.2766    0.0977 C.2       1 <0>         0.0829
      8 C8         -0.0659    1.4779   -0.0294 C.2       1 <0>         0.0161
      9 N1         -1.1394    2.3357   -0.1104 N.pl3     1 <0>        -0.4541
     10 C9         -0.6573    3.5936   -0.0234 C.2       1 <0>         0.2070
     11 N2          0.6407    3.5564    0.0960 N.2       1 <0>        -0.4651
     12 C10        -2.5459    1.9538   -0.2597 C.3       1 <0>         0.1108
     13 C11        -3.1840    1.8072    1.1232 C.3       1 <0>        -0.1754
     14 C12        -4.6162    1.2905    0.9717 C.3       1 <0>        -0.0013
     15 C13        -4.5637    0.0944    3.0774 C.3       1 <0>        -0.0450
     16 C14        -5.1926    0.0223    4.4714 C.3       1 <0>         0.0352
     17 O1         -6.5988   -0.2042    4.3434 O.3       1 <0>        -0.3546
     18 C15        -7.2785    0.8050    3.5918 C.3       1 <0>         0.0340
     19 C16        -6.6708    0.8851    2.1889 C.3       1 <0>        -0.0383
     20 C17        -0.1040    0.0034   -0.0754 C.ar      1 <0>         0.0263
     21 C18        -0.8683   -0.7265    0.8448 C.ar      1 <0>        -0.1774
     22 C19        -0.8787   -2.1024    0.7618 C.ar      1 <0>         0.1061
     23 N3         -0.1744   -2.7315   -0.1604 N.ar      1 <0>        -0.4719
     24 C20         0.5626   -2.0834   -1.0431 C.ar      1 <0>         0.1188
     25 C21         0.6276   -0.7065   -1.0369 C.ar      1 <0>        -0.1419
     26 Cl1         4.4178   -1.2653    1.8641 Cl        1 <0>        -0.0400
     27 Cl2         6.7196    0.3902    0.5677 Cl        1 <0>        -0.0372
     28 H1          3.2717    3.4584   -0.8978 H         1 <0>         0.1454
     29 H2          5.5953    2.6764   -0.6997 H         1 <0>         0.1501
     30 H3          1.9514    0.0625    1.3604 H         1 <0>         0.1354
     31 H4         -1.2545    4.4930   -0.0529 H         1 <0>         0.2152
     32 H5         -3.0734    2.7232   -0.8235 H         1 <0>         0.1124
     33 H6         -2.6102    1.0048   -0.7920 H         1 <0>         0.1035
     34 H7         -2.6041    1.1015    1.7180 H         1 <0>         0.0955
     35 H8         -3.1983    2.7766    1.6214 H         1 <0>         0.1007
     36 H9         -5.1961    1.9962    0.3769 H         1 <0>         0.1385
     37 H10        -4.6019    0.3211    0.4735 H         1 <0>         0.1373
     38 H11        -4.6879   -0.8634    2.5721 H         1 <0>         0.1434
     39 H12        -3.5020    0.3237    3.1685 H         1 <0>         0.1380
     40 H13        -5.0216    0.9618    4.9969 H         1 <0>         0.0816
     41 H14        -4.7417   -0.7960    5.0329 H         1 <0>         0.1433
     42 H15        -7.1681    1.7674    4.0917 H         1 <0>         0.0818
     43 H16        -8.3361    0.5525    3.5165 H         1 <0>         0.1434
     44 H17        -7.1471    1.6915    1.6314 H         1 <0>         0.1427
     45 H18        -6.8286   -0.0601    1.6694 H         1 <0>         0.1419
     46 H19        -1.4434   -0.2187    1.6050 H         1 <0>         0.1238
     47 H20        -1.4675   -2.6739    1.4640 H         1 <0>         0.1577
     48 H21         1.1228   -2.6396   -1.7801 H         1 <0>         0.1662
     49 H22         1.2328   -0.1829   -1.7622 H         1 <0>         0.1418
     50 N4         -5.2261    1.1725    2.3139 N.4       1 <0>        -0.3956
     51 H23        -5.1042    2.0603    2.8151 H         1 <0>         0.4279
@<TRIPOS>BOND
     1    1    6 ar
     2    1    2 ar
     3    1   28 1
     4    2    3 ar
     5    2   29 1
     6    3    4 ar
     7    3   27 1
     8    4    5 ar
     9    4   26 1
    10    5    6 ar
    11    5   30 1
    12    6    7 1
    13    7   11 1
    14    7    8 2
    15    8    9 1
    16    8   20 1
    17    9   10 1
    18    9   12 1
    19   10   11 2
    20   10   31 1
    21   12   13 1
    22   12   32 1
    23   12   33 1
    24   13   14 1
    25   13   34 1
    26   13   35 1
    27   14   36 1
    28   14   37 1
    29   14   50 1
    30   15   16 1
    31   15   38 1
    32   15   39 1
    33   15   50 1
    34   16   17 1
    35   16   40 1
    36   16   41 1
    37   17   18 1
    38   18   19 1
    39   18   42 1
    40   18   43 1
    41   19   44 1
    42   19   45 1
    43   19   50 1
    44   20   25 ar
    45   20   21 ar
    46   21   22 ar
    47   21   46 1
    48   22   23 ar
    49   22   47 1
    50   23   24 ar
    51   24   25 ar
    52   24   48 1
    53   25   49 1
    54   50   51 1
@<TRIPOS>MOLECULE
ZINC03815754
   52    55     0     0     0
SMALL
USER_CHARGES

@<TRIPOS>ATOM
      1 C1          3.4910    2.5456   -0.3638 C.ar      1 <0>        -0.0755
      2 C2          4.7945    2.1065   -0.2522 C.ar      1 <0>        -0.0870
      3 C3          5.0775    0.9369    0.4317 C.ar      1 <0>        -0.0013
      4 C4          4.0546    0.2005    1.0080 C.ar      1 <0>        -0.0315
      5 C5          2.7478    0.6343    0.9074 C.ar      1 <0>        -0.0599
      6 C6          2.4575    1.8093    0.2142 C.ar      1 <0>        -0.0643
      7 C7          1.0564    2.2766    0.0977 C.2       1 <0>         0.1202
      8 C8         -0.0659    1.4779   -0.0294 C.2       1 <0>         0.1021
      9 N1         -1.1394    2.3357   -0.1104 N.pl3     1 <0>        -0.4081
     10 C9         -0.6573    3.5936   -0.0234 C.cat     1 <0>         0.3045
     11 C10        -2.5459    1.9538   -0.2597 C.3       1 <0>         0.0986
     12 C11        -3.1840    1.8072    1.1232 C.3       1 <0>        -0.1815
     13 C12        -4.6162    1.2905    0.9717 C.3       1 <0>        -0.0019
     14 C13        -4.5637    0.0944    3.0774 C.3       1 <0>        -0.0456
     15 C14        -5.1926    0.0223    4.4714 C.3       1 <0>         0.0341
     16 O1         -6.5988   -0.2042    4.3434 O.3       1 <0>        -0.3508
     17 C15        -7.2785    0.8050    3.5918 C.3       1 <0>         0.0329
     18 C16        -6.6708    0.8851    2.1889 C.3       1 <0>        -0.0386
     19 C17        -0.1040    0.0034   -0.0754 C.ar      1 <0>        -0.0216
     20 C18        -0.8683   -0.7265    0.8448 C.ar      1 <0>        -0.1626
     21 C19        -0.8787   -2.1024    0.7618 C.ar      1 <0>         0.1168
     22 N2         -0.1744   -2.7315   -0.1604 N.ar      1 <0>        -0.4505
     23 C20         0.5626   -2.0834   -1.0431 C.ar      1 <0>         0.1291
     24 C21         0.6276   -0.7065   -1.0369 C.ar      1 <0>        -0.1276
     25 Cl1         4.4178   -1.2653    1.8641 Cl        1 <0>        -0.0126
     26 Cl2         6.7196    0.3902    0.5677 Cl        1 <0>        -0.0059
     27 H1          3.2717    3.4584   -0.8978 H         1 <0>         0.1445
     28 H2          5.5953    2.6764   -0.6997 H         1 <0>         0.1624
     29 H3          1.9514    0.0625    1.3604 H         1 <0>         0.1452
     30 H4         -1.2545    4.4930   -0.0529 H         1 <0>         0.2684
     31 H5         -3.0734    2.7232   -0.8235 H         1 <0>         0.1390
     32 H6         -2.6102    1.0048   -0.7920 H         1 <0>         0.1322
     33 H7         -2.6041    1.1015    1.7180 H         1 <0>         0.1016
     34 H8         -3.1983    2.7766    1.6214 H         1 <0>         0.1086
     35 H9         -5.1961    1.9962    0.3769 H         1 <0>         0.1439
     36 H10        -4.6019    0.3211    0.4735 H         1 <0>         0.1424
     37 H11        -4.6879   -0.8634    2.5721 H         1 <0>         0.1457
     38 H12        -3.5020    0.3237    3.1685 H         1 <0>         0.1344
     39 H13        -5.0216    0.9618    4.9969 H         1 <0>         0.0822
     40 H14        -4.7417   -0.7960    5.0329 H         1 <0>         0.1450
     41 H15        -7.1681    1.7674    4.0917 H         1 <0>         0.0835
     42 H16        -8.3361    0.5525    3.5165 H         1 <0>         0.1473
     43 H17        -7.1471    1.6915    1.6314 H         1 <0>         0.1453
     44 H18        -6.8286   -0.0601    1.6694 H         1 <0>         0.1448
     45 H19        -1.4434   -0.2187    1.6050 H         1 <0>         0.1310
     46 H20        -1.4675   -2.6739    1.4640 H         1 <0>         0.1690
     47 H21         1.1228   -2.6396   -1.7801 H         1 <0>         0.1766
     48 H22         1.2328   -0.1829   -1.7622 H         1 <0>         0.1488
     49 N3         -5.2261    1.1725    2.3139 N.4       1 <0>        -0.3961
     50 H23        -5.1042    2.0603    2.8151 H         1 <0>         0.4284
     51 N4          0.6410    3.5568    0.0960 N.pl3     1 <0>        -0.4728
     52 H24         1.2521    4.3781    0.1764 H         1 <0>         0.4873
@<TRIPOS>BOND
     1    1    6 ar
     2    1    2 ar
     3    1   27 1
     4    2    3 ar
     5    2   28 1
     6    3    4 ar
     7    3   26 1
     8    4    5 ar
     9    4   25 1
    10    5    6 ar
    11    5   29 1
    12    6    7 1
    13    7    8 2
    14    7   51 1
    15    8    9 1
    16    8   19 1
    17    9   10 1
    18    9   11 1
    19   10   30 1
    20   10   51 2
    21   11   12 1
    22   11   31 1
    23   11   32 1
    24   12   13 1
    25   12   33 1
    26   12   34 1
    27   13   35 1
    28   13   36 1
    29   13   49 1
    30   14   15 1
    31   14   37 1
    32   14   38 1
    33   14   49 1
    34   15   16 1
    35   15   39 1
    36   15   40 1
    37   16   17 1
    38   17   18 1
    39   17   41 1
    40   17   42 1
    41   18   43 1
    42   18   44 1
    43   18   49 1
    44   19   24 ar
    45   19   20 ar
    46   20   21 ar
    47   20   45 1
    48   21   22 ar
    49   21   46 1
    50   22   23 ar
    51   23   24 ar
    52   23   47 1
    53   24   48 1
    54   49   50 1
    55   51   52 1
@<TRIPOS>MOLECULE
ZINC03815755
   42    45     0     0     0
SMALL
USER_CHARGES

@<TRIPOS>ATOM
      1 C1         -8.5320    6.5668   -0.7008 C.3       1 <0>        -0.1319
      2 S1         -6.8914    5.8141   -0.5206 S.3       1 <0>        -0.1598
      3 C2         -6.1102    6.7874    0.7232 C.ar      1 <0>        -0.0764
      4 C3         -6.7890    7.8485    1.3079 C.ar      1 <0>        -0.1242
      5 C4         -6.1727    8.6132    2.2782 C.ar      1 <0>        -0.0888
      6 C5         -4.8784    8.3261    2.6796 C.ar      1 <0>        -0.1154
      7 C6         -4.1911    7.2731    2.1136 C.ar      1 <0>        -0.0578
      8 C7         -4.8010    6.4910    1.1315 C.ar      1 <0>         0.0027
      9 C8         -4.0706    5.3622    0.5217 C.2       1 <0>         0.2305
     10 N1         -2.7993    4.9796    0.8374 N.2       1 <0>        -0.4454
     11 H1         -5.4532    4.6278   -0.8175 H         1 <0>         0.4221
     12 C9         -2.4932    3.8943    0.0449 C.2       1 <0>         0.0577
     13 C10        -3.6104    3.6549   -0.7379 C.2       1 <0>         0.0297
     14 N2         -4.5412    4.5653   -0.4121 N.pl3     1 <0>        -0.4935
     15 C11        -3.7547    2.5813   -1.7489 C.ar      1 <0>        -0.0327
     16 C12        -2.6597    2.1968   -2.5221 C.ar      1 <0>        -0.0616
     17 C13        -2.7979    1.1934   -3.4588 C.ar      1 <0>        -0.1449
     18 C14        -4.0246    0.5748   -3.6388 C.ar      1 <0>         0.1078
     19 C15        -5.1168    0.9570   -2.8766 C.ar      1 <0>        -0.1464
     20 C16        -4.9874    1.9561   -1.9341 C.ar      1 <0>        -0.0842
     21 F1         -4.1563   -0.4038   -4.5609 F         1 <0>        -0.1347
     22 C17        -1.2258    3.1409    0.0297 C.ar      1 <0>         0.0430
     23 C18        -1.2207    1.7389    0.0173 C.ar      1 <0>        -0.1547
     24 C19        -0.0126    1.0758    0.0080 C.ar      1 <0>         0.1014
     25 N3          1.1269    1.7422    0.0007 N.ar      1 <0>        -0.4834
     26 C20         1.1679    3.0617    0.0069 C.ar      1 <0>         0.1009
     27 C21         0.0083    3.8062    0.0215 C.ar      1 <0>        -0.1469
     28 H2         -9.0607    6.5181    0.2512 H         1 <0>         0.0919
     29 H3         -8.4227    7.6084   -1.0028 H         1 <0>         0.0919
     30 H4         -9.0985    6.0262   -1.4590 H         1 <0>         0.1150
     31 H5         -7.7985    8.0782    1.0004 H         1 <0>         0.1313
     32 H6         -6.7030    9.4400    2.7272 H         1 <0>         0.1336
     33 H7         -4.4050    8.9303    3.4394 H         1 <0>         0.1365
     34 H8         -3.1822    7.0536    2.4302 H         1 <0>         0.1460
     35 H9         -1.7041    2.6812   -2.3854 H         1 <0>         0.1363
     36 H10        -1.9495    0.8923   -4.0555 H         1 <0>         0.1429
     37 H11        -6.0710    0.4722   -3.0207 H         1 <0>         0.1415
     38 H12        -5.8395    2.2538   -1.3410 H         1 <0>         0.1301
     39 H13        -2.1491    1.1871    0.0191 H         1 <0>         0.1344
     40 H14         0.0021   -0.0041    0.0020 H         1 <0>         0.1580
     41 H15         2.1236    3.5647    0.0002 H         1 <0>         0.1588
     42 H16         0.0495    4.8854    0.0269 H         1 <0>         0.1386
@<TRIPOS>BOND
     1    1    2 1
     2    1   28 1
     3    1   29 1
     4    1   30 1
     5    2    3 1
     6    3    8 ar
     7    3    4 ar
     8    4    5 ar
     9    4   31 1
    10    5    6 ar
    11    5   32 1
    12    6    7 ar
    13    6   33 1
    14    7    8 ar
    15    7   34 1
    16    8    9 1
    17    9   10 2
    18    9   14 1
    19   10   12 1
    20   11   14 1
    21   12   13 2
    22   12   22 1
    23   13   14 1
    24   13   15 1
    25   15   20 ar
    26   15   16 ar
    27   16   17 ar
    28   16   35 1
    29   17   18 ar
    30   17   36 1
    31   18   19 ar
    32   18   21 1
    33   19   20 ar
    34   19   37 1
    35   20   38 1
    36   22   27 ar
    37   22   23 ar
    38   23   24 ar
    39   23   39 1
    40   24   25 ar
    41   24   40 1
    42   25   26 ar
    43   26   27 ar
    44   26   41 1
    45   27   42 1
@<TRIPOS>MOLECULE
ZINC03815755
   43    46     0     0     0
SMALL
USER_CHARGES

@<TRIPOS>ATOM
      1 C1         -8.5320    6.5668   -0.7008 C.3       1 <0>        -0.1195
      2 S1         -6.8914    5.8141   -0.5206 S.3       1 <0>        -0.1633
      3 C2         -6.1102    6.7874    0.7232 C.ar      1 <0>        -0.0412
      4 C3         -6.7890    7.8485    1.3079 C.ar      1 <0>        -0.1185
      5 C4         -6.1727    8.6132    2.2782 C.ar      1 <0>        -0.0456
      6 C5         -4.8784    8.3261    2.6796 C.ar      1 <0>        -0.1062
      7 C6         -4.1911    7.2731    2.1136 C.ar      1 <0>        -0.0549
      8 C7         -4.8010    6.4910    1.1315 C.ar      1 <0>        -0.0733
      9 C8         -4.0706    5.3622    0.5217 C.cat     1 <0>         0.3827
     10 N1         -2.7993    4.9796    0.8374 N.pl3     1 <0>        -0.5074
     11 H1         -2.2019    5.4065    1.5163 H         1 <0>         0.4705
     12 C9         -2.4932    3.8943    0.0449 C.2       1 <0>         0.1154
     13 C10        -3.6144    3.6481   -0.7301 C.2       1 <0>         0.1108
     14 C11        -3.7616    2.5696   -1.7355 C.ar      1 <0>        -0.0809
     15 C12        -2.6682    2.1799   -2.5084 C.ar      1 <0>        -0.0465
     16 C13        -2.8090    1.1720   -3.4398 C.ar      1 <0>        -0.1454
     17 C14        -4.0368    0.5541   -3.6149 C.ar      1 <0>         0.1413
     18 C15        -5.1274    0.9414   -2.8530 C.ar      1 <0>        -0.1459
     19 C16        -4.9953    1.9450   -1.9157 C.ar      1 <0>        -0.0637
     20 F1         -4.1711   -0.4290   -4.5319 F         1 <0>        -0.1211
     21 C17        -1.2258    3.1409    0.0297 C.ar      1 <0>        -0.0181
     22 C18        -1.2207    1.7389    0.0173 C.ar      1 <0>        -0.1323
     23 C19        -0.0126    1.0758    0.0080 C.ar      1 <0>         0.1168
     24 N2          1.1269    1.7422    0.0007 N.ar      1 <0>        -0.4583
     25 C20         1.1679    3.0617    0.0069 C.ar      1 <0>         0.1166
     26 C21         0.0083    3.8062    0.0215 C.ar      1 <0>        -0.1485
     27 H2         -9.0607    6.5181    0.2512 H         1 <0>         0.1036
     28 H3         -8.4227    7.6084   -1.0028 H         1 <0>         0.1036
     29 H4         -9.0985    6.0262   -1.4590 H         1 <0>         0.1278
     30 H5         -7.7985    8.0782    1.0004 H         1 <0>         0.1477
     31 H6         -6.7030    9.4400    2.7272 H         1 <0>         0.1509
     32 H7         -4.4050    8.9303    3.4394 H         1 <0>         0.1523
     33 H8         -3.1822    7.0536    2.4302 H         1 <0>         0.1396
     34 H9         -1.7118    2.6638   -2.3755 H         1 <0>         0.1409
     35 H10        -1.9619    0.8669   -4.0363 H         1 <0>         0.1532
     36 H11        -6.0824    0.4571   -2.9933 H         1 <0>         0.1527
     37 H12        -5.8461    2.2467   -1.3228 H         1 <0>         0.1361
     38 H13        -2.1491    1.1871    0.0191 H         1 <0>         0.1468
     39 H14         0.0021   -0.0041    0.0020 H         1 <0>         0.1721
     40 H15         2.1236    3.5647    0.0002 H         1 <0>         0.1712
     41 H16         0.0495    4.8854    0.0269 H         1 <0>         0.1424
     42 N3         -4.5443    4.5613   -0.4077 N.pl3     1 <0>        -0.4653
     43 H17        -5.4812    4.6246   -0.8229 H         1 <0>         0.4608
@<TRIPOS>BOND
     1    1    2 1
     2    1   27 1
     3    1   28 1
     4    1   29 1
     5    2    3 1
     6    3    8 ar
     7    3    4 ar
     8    4    5 ar
     9    4   30 1
    10    5    6 ar
    11    5   31 1
    12    6    7 ar
    13    6   32 1
    14    7    8 ar
    15    7   33 1
    16    8    9 1
    17    9   10 1
    18    9   42 2
    19   10   11 1
    20   10   12 1
    21   12   13 2
    22   12   21 1
    23   13   14 1
    24   13   42 1
    25   14   19 ar
    26   14   15 ar
    27   15   16 ar
    28   15   34 1
    29   16   17 ar
    30   16   35 1
    31   17   18 ar
    32   17   20 1
    33   18   19 ar
    34   18   36 1
    35   19   37 1
    36   21   26 ar
    37   21   22 ar
    38   22   23 ar
    39   22   38 1
    40   23   24 ar
    41   23   39 1
    42   24   25 ar
    43   25   26 ar
    44   25   40 1
    45   26   41 1
    46   42   43 1
@<TRIPOS>MOLECULE
ZINC03815755
   42    45     0     0     0
SMALL
USER_CHARGES

@<TRIPOS>ATOM
      1 C1         -8.5320    6.5668   -0.7008 C.3       1 <0>        -0.1319
      2 S1         -6.8914    5.8141   -0.5206 S.3       1 <0>        -0.1598
      3 C2         -6.1102    6.7874    0.7232 C.ar      1 <0>        -0.0764
      4 C3         -6.7890    7.8485    1.3079 C.ar      1 <0>        -0.1242
      5 C4         -6.1727    8.6132    2.2782 C.ar      1 <0>        -0.0888
      6 C5         -4.8784    8.3261    2.6796 C.ar      1 <0>        -0.1154
      7 C6         -4.1911    7.2731    2.1136 C.ar      1 <0>        -0.0578
      8 C7         -4.8010    6.4910    1.1315 C.ar      1 <0>         0.0027
      9 C8         -4.0706    5.3622    0.5217 C.2       1 <0>         0.2305
     10 N1         -2.7993    4.9796    0.8374 N.2       1 <0>        -0.4454
     11 H1         -5.4532    4.6278   -0.8175 H         1 <0>         0.4221
     12 C9         -2.4932    3.8943    0.0449 C.2       1 <0>         0.0577
     13 C10        -3.6104    3.6549   -0.7379 C.2       1 <0>         0.0297
     14 N2         -4.5412    4.5653   -0.4121 N.pl3     1 <0>        -0.4935
     15 C11        -3.7547    2.5813   -1.7489 C.ar      1 <0>        -0.0327
     16 C12        -2.6597    2.1968   -2.5221 C.ar      1 <0>        -0.0616
     17 C13        -2.7979    1.1934   -3.4588 C.ar      1 <0>        -0.1449
     18 C14        -4.0246    0.5748   -3.6388 C.ar      1 <0>         0.1078
     19 C15        -5.1168    0.9570   -2.8766 C.ar      1 <0>        -0.1464
     20 C16        -4.9874    1.9561   -1.9341 C.ar      1 <0>        -0.0842
     21 F1         -4.1563   -0.4038   -4.5609 F         1 <0>        -0.1347
     22 C17        -1.2258    3.1409    0.0297 C.ar      1 <0>         0.0430
     23 C18        -1.2207    1.7389    0.0173 C.ar      1 <0>        -0.1547
     24 C19        -0.0126    1.0758    0.0080 C.ar      1 <0>         0.1014
     25 N3          1.1269    1.7422    0.0007 N.ar      1 <0>        -0.4834
     26 C20         1.1679    3.0617    0.0069 C.ar      1 <0>         0.1009
     27 C21         0.0083    3.8062    0.0215 C.ar      1 <0>        -0.1469
     28 H2         -9.0607    6.5181    0.2512 H         1 <0>         0.0919
     29 H3         -8.4227    7.6084   -1.0028 H         1 <0>         0.0919
     30 H4         -9.0985    6.0262   -1.4590 H         1 <0>         0.1150
     31 H5         -7.7985    8.0782    1.0004 H         1 <0>         0.1313
     32 H6         -6.7030    9.4400    2.7272 H         1 <0>         0.1336
     33 H7         -4.4050    8.9303    3.4394 H         1 <0>         0.1365
     34 H8         -3.1822    7.0536    2.4302 H         1 <0>         0.1460
     35 H9         -1.7041    2.6812   -2.3854 H         1 <0>         0.1363
     36 H10        -1.9495    0.8923   -4.0555 H         1 <0>         0.1429
     37 H11        -6.0710    0.4722   -3.0207 H         1 <0>         0.1415
     38 H12        -5.8395    2.2538   -1.3410 H         1 <0>         0.1301
     39 H13        -2.1491    1.1871    0.0191 H         1 <0>         0.1344
     40 H14         0.0021   -0.0041    0.0020 H         1 <0>         0.1580
     41 H15         2.1236    3.5647    0.0002 H         1 <0>         0.1588
     42 H16         0.0495    4.8854    0.0269 H         1 <0>         0.1386
@<TRIPOS>BOND
     1    1    2 1
     2    1   28 1
     3    1   29 1
     4    1   30 1
     5    2    3 1
     6    3    8 ar
     7    3    4 ar
     8    4    5 ar
     9    4   31 1
    10    5    6 ar
    11    5   32 1
    12    6    7 ar
    13    6   33 1
    14    7    8 ar
    15    7   34 1
    16    8    9 1
    17    9   10 2
    18    9   14 1
    19   10   12 1
    20   11   14 1
    21   12   13 2
    22   12   22 1
    23   13   14 1
    24   13   15 1
    25   15   20 ar
    26   15   16 ar
    27   16   17 ar
    28   16   35 1
    29   17   18 ar
    30   17   36 1
    31   18   19 ar
    32   18   21 1
    33   19   20 ar
    34   19   37 1
    35   20   38 1
    36   22   27 ar
    37   22   23 ar
    38   23   24 ar
    39   23   39 1
    40   24   25 ar
    41   24   40 1
    42   25   26 ar
    43   26   27 ar
    44   26   41 1
    45   27   42 1
@<TRIPOS>MOLECULE
ZINC03815756
   44    47     0     0     0
SMALL
USER_CHARGES

@<TRIPOS>ATOM
      1 C1          2.3167    1.1991    1.2476 C.3       1 <0>         0.0362
      2 O1          1.0990    1.9588    1.0281 O.3       1 <0>        -0.3537
      3 C2         -0.0634    1.2791    1.0776 C.2       1 <0>         0.5074
      4 O2         -0.0596    0.0844    1.2982 O.2       1 <0>        -0.5019
      5 C3         -1.3409    1.9848    0.8579 C.ar      1 <0>        -0.1186
      6 C4         -1.3459    3.3606    0.6098 C.ar      1 <0>        -0.0549
      7 C5         -2.5326    4.0151    0.4009 C.ar      1 <0>        -0.0893
      8 C6         -3.7376    3.3090    0.4466 C.ar      1 <0>         0.0210
      9 C7         -3.7333    1.9347    0.6999 C.ar      1 <0>        -0.1254
     10 C8         -2.5466    1.2787    0.9036 C.ar      1 <0>        -0.0462
     11 C9         -5.0164    4.0156    0.2277 C.2       1 <0>         0.2244
     12 N1         -5.1494    5.3495   -0.0270 N.2       1 <0>        -0.4403
     13 H1         -6.3878    2.4891    0.4078 H         1 <0>         0.4307
     14 C10        -6.4932    5.6037   -0.1681 C.2       1 <0>         0.0609
     15 C11        -7.1421    4.3925    0.0191 C.2       1 <0>         0.0361
     16 N2         -6.2071    3.4594    0.2473 N.pl3     1 <0>        -0.5036
     17 C12        -8.6058    4.1677   -0.0353 C.ar      1 <0>        -0.0379
     18 C13        -9.4757    5.0752    0.5683 C.ar      1 <0>        -0.0583
     19 C14       -10.8378    4.8645    0.5104 C.ar      1 <0>        -0.1459
     20 C15       -11.3415    3.7477   -0.1369 C.ar      1 <0>         0.1110
     21 C16       -10.4808    2.8401   -0.7331 C.ar      1 <0>        -0.1479
     22 C17        -9.1175    3.0450   -0.6852 C.ar      1 <0>        -0.0812
     23 F1        -12.6759    3.5429   -0.1865 F         1 <0>        -0.1338
     24 C18        -7.1209    6.9079   -0.4528 C.ar      1 <0>         0.0404
     25 C19        -8.0971    7.0353   -1.4505 C.ar      1 <0>        -0.1525
     26 C20        -8.6604    8.2725   -1.6794 C.ar      1 <0>         0.1020
     27 N3         -8.2850    9.3282   -0.9818 N.ar      1 <0>        -0.4824
     28 C21        -7.3661    9.2539   -0.0372 C.ar      1 <0>         0.1011
     29 C22        -6.7537    8.0559    0.2627 C.ar      1 <0>        -0.1466
     30 H2          2.4005    0.4200    0.4899 H         1 <0>         0.0655
     31 H3          3.1772    1.8647    1.1810 H         1 <0>         0.1057
     32 H4          2.2866    0.7421    2.2368 H         1 <0>         0.0655
     33 H5         -0.4149    3.9072    0.5790 H         1 <0>         0.1476
     34 H6         -2.5362    5.0773    0.2056 H         1 <0>         0.1487
     35 H7         -4.6648    1.3893    0.7355 H         1 <0>         0.1290
     36 H8         -2.5433    0.2167    1.0996 H         1 <0>         0.1452
     37 H9         -9.0839    5.9439    1.0766 H         1 <0>         0.1355
     38 H10       -11.5125    5.5688    0.9743 H         1 <0>         0.1430
     39 H11       -10.8780    1.9707   -1.2359 H         1 <0>         0.1420
     40 H12        -8.4474    2.3369   -1.1499 H         1 <0>         0.1319
     41 H13        -8.4062    6.1767   -2.0281 H         1 <0>         0.1337
     42 H14        -9.4164    8.3803   -2.4432 H         1 <0>         0.1581
     43 H15        -7.0899   10.1443    0.5082 H         1 <0>         0.1591
     44 H16        -6.0029    8.0026    1.0371 H         1 <0>         0.1384
@<TRIPOS>BOND
     1    1    2 1
     2    1   30 1
     3    1   31 1
     4    1   32 1
     5    2    3 1
     6    3    4 2
     7    3    5 1
     8    5   10 ar
     9    5    6 ar
    10    6    7 ar
    11    6   33 1
    12    7    8 ar
    13    7   34 1
    14    8    9 ar
    15    8   11 1
    16    9   10 ar
    17    9   35 1
    18   10   36 1
    19   11   12 2
    20   11   16 1
    21   12   14 1
    22   13   16 1
    23   14   15 2
    24   14   24 1
    25   15   16 1
    26   15   17 1
    27   17   22 ar
    28   17   18 ar
    29   18   19 ar
    30   18   37 1
    31   19   20 ar
    32   19   38 1
    33   20   21 ar
    34   20   23 1
    35   21   22 ar
    36   21   39 1
    37   22   40 1
    38   24   29 ar
    39   24   25 ar
    40   25   26 ar
    41   25   41 1
    42   26   27 ar
    43   26   42 1
    44   27   28 ar
    45   28   29 ar
    46   28   43 1
    47   29   44 1
@<TRIPOS>MOLECULE
ZINC03815756
   45    48     0     0     0
SMALL
USER_CHARGES

@<TRIPOS>ATOM
      1 C1          2.3167    1.1991    1.2476 C.3       1 <0>         0.0352
      2 O1          1.0990    1.9588    1.0281 O.3       1 <0>        -0.3517
      3 C2         -0.0634    1.2791    1.0776 C.2       1 <0>         0.4974
      4 O2         -0.0596    0.0844    1.2982 O.2       1 <0>        -0.4822
      5 C3         -1.3409    1.9848    0.8579 C.ar      1 <0>        -0.0685
      6 C4         -1.3459    3.3606    0.6098 C.ar      1 <0>        -0.0513
      7 C5         -2.5326    4.0151    0.4009 C.ar      1 <0>        -0.0831
      8 C6         -3.7376    3.3090    0.4466 C.ar      1 <0>        -0.0601
      9 C7         -3.7333    1.9347    0.6999 C.ar      1 <0>        -0.0833
     10 C8         -2.5466    1.2787    0.9036 C.ar      1 <0>        -0.0446
     11 C9         -5.0164    4.0156    0.2277 C.cat     1 <0>         0.3804
     12 N1         -5.1494    5.3495   -0.0270 N.pl3     1 <0>        -0.5021
     13 H1         -4.4083    6.0171   -0.0978 H         1 <0>         0.4726
     14 C10        -6.4932    5.6037   -0.1681 C.2       1 <0>         0.1204
     15 C11        -7.1415    4.3907    0.0096 C.2       1 <0>         0.1173
     16 C12        -8.6047    4.1647   -0.0516 C.ar      1 <0>        -0.0869
     17 C13        -9.4781    5.0712    0.5484 C.ar      1 <0>        -0.0430
     18 C14       -10.8398    4.8593    0.4842 C.ar      1 <0>        -0.1465
     19 C15       -11.3395    3.7424   -0.1659 C.ar      1 <0>         0.1439
     20 C16       -10.4753    2.8358   -0.7586 C.ar      1 <0>        -0.1472
     21 C17        -9.1124    3.0418   -0.7043 C.ar      1 <0>        -0.0610
     22 F1        -12.6735    3.5364   -0.2217 F         1 <0>        -0.1204
     23 C18        -7.1209    6.9079   -0.4528 C.ar      1 <0>        -0.0221
     24 C19        -8.0971    7.0353   -1.4505 C.ar      1 <0>        -0.1292
     25 C20        -8.6604    8.2725   -1.6794 C.ar      1 <0>         0.1173
     26 N2         -8.2850    9.3282   -0.9818 N.ar      1 <0>        -0.4572
     27 C21        -7.3661    9.2539   -0.0372 C.ar      1 <0>         0.1167
     28 C22        -6.7537    8.0559    0.2627 C.ar      1 <0>        -0.1477
     29 H2          2.4005    0.4200    0.4899 H         1 <0>         0.0704
     30 H3          3.1772    1.8647    1.1810 H         1 <0>         0.1116
     31 H4          2.2866    0.7421    2.2368 H         1 <0>         0.0705
     32 H5         -0.4149    3.9072    0.5790 H         1 <0>         0.1628
     33 H6         -2.5362    5.0773    0.2056 H         1 <0>         0.1420
     34 H7         -4.6648    1.3893    0.7355 H         1 <0>         0.1430
     35 H8         -2.5433    0.2167    1.0996 H         1 <0>         0.1622
     36 H9         -9.0894    5.9400    1.0589 H         1 <0>         0.1400
     37 H10       -11.5172    5.5628    0.9453 H         1 <0>         0.1529
     38 H11       -10.8695    1.9663   -1.2636 H         1 <0>         0.1530
     39 H12        -8.4396    2.3345   -1.1663 H         1 <0>         0.1388
     40 H13        -8.4062    6.1767   -2.0281 H         1 <0>         0.1462
     41 H14        -9.4164    8.3803   -2.4432 H         1 <0>         0.1721
     42 H15        -7.0899   10.1443    0.5082 H         1 <0>         0.1716
     43 H16        -6.0029    8.0026    1.0371 H         1 <0>         0.1427
     44 N3         -6.2068    3.4578    0.2417 N.pl3     1 <0>        -0.4724
     45 H17        -6.3922    2.4613    0.4052 H         1 <0>         0.4794
@<TRIPOS>BOND
     1    1    2 1
     2    1   29 1
     3    1   30 1
     4    1   31 1
     5    2    3 1
     6    3    4 2
     7    3    5 1
     8    5   10 ar
     9    5    6 ar
    10    6    7 ar
    11    6   32 1
    12    7    8 ar
    13    7   33 1
    14    8    9 ar
    15    8   11 1
    16    9   10 ar
    17    9   34 1
    18   10   35 1
    19   11   12 1
    20   11   44 2
    21   12   13 1
    22   12   14 1
    23   14   15 2
    24   14   23 1
    25   15   16 1
    26   15   44 1
    27   16   21 ar
    28   16   17 ar
    29   17   18 ar
    30   17   36 1
    31   18   19 ar
    32   18   37 1
    33   19   20 ar
    34   19   22 1
    35   20   21 ar
    36   20   38 1
    37   21   39 1
    38   23   28 ar
    39   23   24 ar
    40   24   25 ar
    41   24   40 1
    42   25   26 ar
    43   25   41 1
    44   26   27 ar
    45   27   28 ar
    46   27   42 1
    47   28   43 1
    48   44   45 1
@<TRIPOS>MOLECULE
ZINC03815756
   44    47     0     0     0
SMALL
USER_CHARGES

@<TRIPOS>ATOM
      1 C1          2.3167    1.1991    1.2476 C.3       1 <0>         0.0362
      2 O1          1.0990    1.9588    1.0281 O.3       1 <0>        -0.3537
      3 C2         -0.0634    1.2791    1.0776 C.2       1 <0>         0.5074
      4 O2         -0.0596    0.0844    1.2982 O.2       1 <0>        -0.5019
      5 C3         -1.3409    1.9848    0.8579 C.ar      1 <0>        -0.1186
      6 C4         -1.3459    3.3606    0.6098 C.ar      1 <0>        -0.0549
      7 C5         -2.5326    4.0151    0.4009 C.ar      1 <0>        -0.0893
      8 C6         -3.7376    3.3090    0.4466 C.ar      1 <0>         0.0210
      9 C7         -3.7333    1.9347    0.6999 C.ar      1 <0>        -0.1254
     10 C8         -2.5466    1.2787    0.9036 C.ar      1 <0>        -0.0462
     11 C9         -5.0164    4.0156    0.2277 C.2       1 <0>         0.2244
     12 N1         -5.1494    5.3495   -0.0270 N.2       1 <0>        -0.4403
     13 H1         -6.3878    2.4891    0.4078 H         1 <0>         0.4307
     14 C10        -6.4932    5.6037   -0.1681 C.2       1 <0>         0.0609
     15 C11        -7.1421    4.3925    0.0191 C.2       1 <0>         0.0361
     16 N2         -6.2071    3.4594    0.2473 N.pl3     1 <0>        -0.5036
     17 C12        -8.6058    4.1677   -0.0353 C.ar      1 <0>        -0.0379
     18 C13        -9.4757    5.0752    0.5683 C.ar      1 <0>        -0.0583
     19 C14       -10.8378    4.8645    0.5104 C.ar      1 <0>        -0.1459
     20 C15       -11.3415    3.7477   -0.1369 C.ar      1 <0>         0.1110
     21 C16       -10.4808    2.8401   -0.7331 C.ar      1 <0>        -0.1479
     22 C17        -9.1175    3.0450   -0.6852 C.ar      1 <0>        -0.0812
     23 F1        -12.6759    3.5429   -0.1865 F         1 <0>        -0.1338
     24 C18        -7.1209    6.9079   -0.4528 C.ar      1 <0>         0.0404
     25 C19        -8.0971    7.0353   -1.4505 C.ar      1 <0>        -0.1525
     26 C20        -8.6604    8.2725   -1.6794 C.ar      1 <0>         0.1020
     27 N3         -8.2850    9.3282   -0.9818 N.ar      1 <0>        -0.4824
     28 C21        -7.3661    9.2539   -0.0372 C.ar      1 <0>         0.1011
     29 C22        -6.7537    8.0559    0.2627 C.ar      1 <0>        -0.1466
     30 H2          2.4005    0.4200    0.4899 H         1 <0>         0.0655
     31 H3          3.1772    1.8647    1.1810 H         1 <0>         0.1057
     32 H4          2.2866    0.7421    2.2368 H         1 <0>         0.0655
     33 H5         -0.4149    3.9072    0.5790 H         1 <0>         0.1476
     34 H6         -2.5362    5.0773    0.2056 H         1 <0>         0.1487
     35 H7         -4.6648    1.3893    0.7355 H         1 <0>         0.1290
     36 H8         -2.5433    0.2167    1.0996 H         1 <0>         0.1452
     37 H9         -9.0839    5.9439    1.0766 H         1 <0>         0.1355
     38 H10       -11.5125    5.5688    0.9743 H         1 <0>         0.1430
     39 H11       -10.8780    1.9707   -1.2359 H         1 <0>         0.1420
     40 H12        -8.4474    2.3369   -1.1499 H         1 <0>         0.1319
     41 H13        -8.4062    6.1767   -2.0281 H         1 <0>         0.1337
     42 H14        -9.4164    8.3803   -2.4432 H         1 <0>         0.1581
     43 H15        -7.0899   10.1443    0.5082 H         1 <0>         0.1591
     44 H16        -6.0029    8.0026    1.0371 H         1 <0>         0.1384
@<TRIPOS>BOND
     1    1    2 1
     2    1   30 1
     3    1   31 1
     4    1   32 1
     5    2    3 1
     6    3    4 2
     7    3    5 1
     8    5   10 ar
     9    5    6 ar
    10    6    7 ar
    11    6   33 1
    12    7    8 ar
    13    7   34 1
    14    8    9 ar
    15    8   11 1
    16    9   10 ar
    17    9   35 1
    18   10   36 1
    19   11   12 2
    20   11   16 1
    21   12   14 1
    22   13   16 1
    23   14   15 2
    24   14   24 1
    25   15   16 1
    26   15   17 1
    27   17   22 ar
    28   17   18 ar
    29   18   19 ar
    30   18   37 1
    31   19   20 ar
    32   19   38 1
    33   20   21 ar
    34   20   23 1
    35   21   22 ar
    36   21   39 1
    37   22   40 1
    38   24   29 ar
    39   24   25 ar
    40   25   26 ar
    41   25   41 1
    42   26   27 ar
    43   26   42 1
    44   27   28 ar
    45   28   29 ar
    46   28   43 1
    47   29   44 1
@<TRIPOS>MOLECULE
ZINC03815757
   46    49     0     0     0
SMALL
USER_CHARGES

@<TRIPOS>ATOM
      1 C1          1.9885   -2.3098   -2.6893 C.3       1 <0>        -0.1147
      2 C2          1.0855   -2.1061   -1.5001 C.ar      1 <0>        -0.1121
      3 C3          1.0979   -2.9999   -0.4507 C.ar      1 <0>         0.1009
      4 N1          0.3101   -2.8296    0.5945 N.ar      1 <0>        -0.4772
      5 C4         -0.5197   -1.8071    0.6881 C.ar      1 <0>         0.0940
      6 C5         -0.5976   -0.8642   -0.3139 C.ar      1 <0>        -0.1459
      7 C6          0.2244   -1.0019   -1.4413 C.ar      1 <0>         0.0375
      8 C7          0.1802   -0.0155   -2.5370 C.2       1 <0>         0.0664
      9 C8          1.1863    0.8637   -2.9035 C.2       1 <0>         0.0301
     10 N2          0.7408    1.5832   -3.9447 N.pl3     1 <0>        -0.5047
     11 C9         -0.4825    1.2104   -4.2464 C.2       1 <0>         0.2263
     12 N3         -0.8699    0.2162   -3.3966 N.2       1 <0>        -0.4432
     13 H1          1.2602    2.2943   -4.4186 H         1 <0>         0.4296
     14 C10        -1.3077    1.7781   -5.3338 C.ar      1 <0>         0.0189
     15 C11        -2.5986    1.2972   -5.5582 C.ar      1 <0>        -0.0906
     16 C12        -3.3655    1.8353   -6.5709 C.ar      1 <0>        -0.0499
     17 C13        -2.8536    2.8418   -7.3703 C.ar      1 <0>        -0.4546
     18 C14        -1.5724    3.3188   -7.1572 C.ar      1 <0>        -0.0361
     19 C15        -0.7971    2.7934   -6.1442 C.ar      1 <0>        -0.1314
     20 S1         -3.8373    3.5188   -8.6659 S.o       1 <0>         1.3317
     21 O1         -5.1729    3.2697   -8.2495 O.2       1 <0>        -0.8500
     22 C16        -3.4477    2.4802  -10.1012 C.3       1 <0>        -0.4980
     23 C17         2.5179    0.9832   -2.2646 C.ar      1 <0>        -0.0333
     24 C18         2.6350    0.9275   -0.8761 C.ar      1 <0>        -0.0605
     25 C19         3.8775    1.0344   -0.2862 C.ar      1 <0>        -0.1448
     26 C20         5.0067    1.2076   -1.0704 C.ar      1 <0>         0.1099
     27 C21         4.8947    1.2689   -2.4501 C.ar      1 <0>        -0.1468
     28 C22         3.6572    1.1577   -3.0496 C.ar      1 <0>        -0.0834
     29 F1          6.2206    1.3175   -0.4878 F         1 <0>        -0.1340
     30 H2          1.4477   -2.8472   -3.4683 H         1 <0>         0.0733
     31 H3          2.3094   -1.3410   -3.0720 H         1 <0>         0.0705
     32 H4          2.8615   -2.8886   -2.3877 H         1 <0>         0.0718
     33 H5          1.7611   -3.8516   -0.4844 H         1 <0>         0.1576
     34 H6         -1.1460   -1.7079    1.5624 H         1 <0>         0.1590
     35 H7         -1.2785   -0.0301   -0.2303 H         1 <0>         0.1365
     36 H8         -2.9977    0.5084   -4.9377 H         1 <0>         0.1405
     37 H9         -4.3662    1.4671   -6.7427 H         1 <0>         0.1338
     38 H10        -1.1785    4.1044   -7.7849 H         1 <0>         0.1448
     39 H11         0.2028    3.1665   -5.9788 H         1 <0>         0.1248
     40 H12        -3.7116    1.4454   -9.8832 H         1 <0>         0.0819
     41 H13        -4.0160    2.8258  -10.9648 H         1 <0>         0.1086
     42 H14        -2.3816    2.5454  -10.3182 H         1 <0>         0.1118
     43 H15         1.7550    0.7969   -0.2638 H         1 <0>         0.1349
     44 H16         3.9698    0.9873    0.7889 H         1 <0>         0.1425
     45 H17         5.7776    1.4043   -3.0572 H         1 <0>         0.1420
     46 H18         3.5709    1.2058   -4.1251 H         1 <0>         0.1315
@<TRIPOS>BOND
     1    1    2 1
     2    1   30 1
     3    1   31 1
     4    1   32 1
     5    2    7 ar
     6    2    3 ar
     7    3    4 ar
     8    3   33 1
     9    4    5 ar
    10    5    6 ar
    11    5   34 1
    12    6    7 ar
    13    6   35 1
    14    7    8 1
    15    8   12 1
    16    8    9 2
    17    9   10 1
    18    9   23 1
    19   10   11 1
    20   10   13 1
    21   11   14 1
    22   11   12 2
    23   14   19 ar
    24   14   15 ar
    25   15   16 ar
    26   15   36 1
    27   16   17 ar
    28   16   37 1
    29   17   18 ar
    30   17   20 1
    31   18   19 ar
    32   18   38 1
    33   19   39 1
    34   20   21 2
    35   20   22 1
    36   22   40 1
    37   22   41 1
    38   22   42 1
    39   23   28 ar
    40   23   24 ar
    41   24   25 ar
    42   24   43 1
    43   25   26 ar
    44   25   44 1
    45   26   27 ar
    46   26   29 1
    47   27   28 ar
    48   27   45 1
    49   28   46 1
@<TRIPOS>MOLECULE
ZINC03815757
   47    50     0     0     0
SMALL
USER_CHARGES

@<TRIPOS>ATOM
      1 C1          1.9885   -2.3098   -2.6893 C.3       1 <0>        -0.1260
      2 C2          1.0855   -2.1061   -1.5001 C.ar      1 <0>        -0.0885
      3 C3          1.0979   -2.9999   -0.4507 C.ar      1 <0>         0.1142
      4 N1          0.3101   -2.8296    0.5945 N.ar      1 <0>        -0.4519
      5 C4         -0.5197   -1.8071    0.6881 C.ar      1 <0>         0.1067
      6 C5         -0.5976   -0.8642   -0.3139 C.ar      1 <0>        -0.1386
      7 C6          0.2244   -1.0019   -1.4413 C.ar      1 <0>        -0.0323
      8 C7          0.1802   -0.0155   -2.5370 C.2       1 <0>         0.1230
      9 C8          1.1895    0.8576   -2.9091 C.2       1 <0>         0.1140
     10 C9         -0.4825    1.2104   -4.2464 C.cat     1 <0>         0.3814
     11 N2         -0.8699    0.2162   -3.3966 N.pl3     1 <0>        -0.5034
     12 H1         -1.7515   -0.2559   -3.3978 H         1 <0>         0.4720
     13 C10        -1.3077    1.7781   -5.3338 C.ar      1 <0>        -0.0600
     14 C11        -2.5986    1.2972   -5.5582 C.ar      1 <0>        -0.0868
     15 C12        -3.3655    1.8353   -6.5709 C.ar      1 <0>        -0.0452
     16 C13        -2.8536    2.8418   -7.3703 C.ar      1 <0>        -0.4190
     17 C14        -1.5724    3.3188   -7.1572 C.ar      1 <0>        -0.0303
     18 C15        -0.7971    2.7934   -6.1442 C.ar      1 <0>        -0.0921
     19 S1         -3.8373    3.5188   -8.6659 S.o       1 <0>         1.3381
     20 O1         -5.1729    3.2697   -8.2495 O.2       1 <0>        -0.8356
     21 C16        -3.4477    2.4802  -10.1012 C.3       1 <0>        -0.4958
     22 C17         2.5234    0.9728   -2.2742 C.ar      1 <0>        -0.0830
     23 C18         2.6447    0.9151   -0.8862 C.ar      1 <0>        -0.0427
     24 C19         3.8893    1.0180   -0.3000 C.ar      1 <0>        -0.1459
     25 C20         5.0165    1.1891   -1.0875 C.ar      1 <0>         0.1432
     26 C21         4.9004    1.2524   -2.4668 C.ar      1 <0>        -0.1462
     27 C22         3.6608    1.1452   -3.0626 C.ar      1 <0>        -0.0631
     28 F1          6.2325    1.2951   -0.5086 F         1 <0>        -0.1205
     29 H2          1.4477   -2.8472   -3.4683 H         1 <0>         0.0815
     30 H3          2.3094   -1.3410   -3.0720 H         1 <0>         0.0697
     31 H4          2.8615   -2.8886   -2.3877 H         1 <0>         0.0873
     32 H5          1.7611   -3.8516   -0.4844 H         1 <0>         0.1707
     33 H6         -1.1460   -1.7079    1.5624 H         1 <0>         0.1714
     34 H7         -1.2785   -0.0301   -0.2303 H         1 <0>         0.1444
     35 H8         -2.9977    0.5084   -4.9377 H         1 <0>         0.1337
     36 H9         -4.3662    1.4671   -6.7427 H         1 <0>         0.1482
     37 H10        -1.1785    4.1044   -7.7849 H         1 <0>         0.1619
     38 H11         0.2028    3.1665   -5.9788 H         1 <0>         0.1387
     39 H12        -3.7116    1.4454   -9.8832 H         1 <0>         0.0852
     40 H13        -4.0160    2.8258  -10.9648 H         1 <0>         0.1173
     41 H14        -2.3816    2.5454  -10.3182 H         1 <0>         0.1163
     42 H15         1.7663    0.7861   -0.2713 H         1 <0>         0.1393
     43 H16         3.9848    0.9693    0.7747 H         1 <0>         0.1525
     44 H17         5.7818    1.3862   -3.0765 H         1 <0>         0.1531
     45 H18         3.5712    1.1949   -4.1377 H         1 <0>         0.1384
     46 N3          0.7430    1.5801   -3.9484 N.pl3     1 <0>        -0.4740
     47 H19         1.2768    2.3094   -4.4357 H         1 <0>         0.4787
@<TRIPOS>BOND
     1    1    2 1
     2    1   29 1
     3    1   30 1
     4    1   31 1
     5    2    7 ar
     6    2    3 ar
     7    3    4 ar
     8    3   32 1
     9    4    5 ar
    10    5    6 ar
    11    5   33 1
    12    6    7 ar
    13    6   34 1
    14    7    8 1
    15    8   11 1
    16    8    9 2
    17    9   22 1
    18    9   46 1
    19   10   11 1
    20   10   13 1
    21   10   46 2
    22   11   12 1
    23   13   18 ar
    24   13   14 ar
    25   14   15 ar
    26   14   35 1
    27   15   16 ar
    28   15   36 1
    29   16   17 ar
    30   16   19 1
    31   17   18 ar
    32   17   37 1
    33   18   38 1
    34   19   20 2
    35   19   21 1
    36   21   39 1
    37   21   40 1
    38   21   41 1
    39   22   27 ar
    40   22   23 ar
    41   23   24 ar
    42   23   42 1
    43   24   25 ar
    44   24   43 1
    45   25   26 ar
    46   25   28 1
    47   26   27 ar
    48   26   44 1
    49   27   45 1
    50   46   47 1
@<TRIPOS>MOLECULE
ZINC03815757
   46    49     0     0     0
SMALL
USER_CHARGES

@<TRIPOS>ATOM
      1 C1          1.9885   -2.3098   -2.6893 C.3       1 <0>        -0.1147
      2 C2          1.0855   -2.1061   -1.5001 C.ar      1 <0>        -0.1121
      3 C3          1.0979   -2.9999   -0.4507 C.ar      1 <0>         0.1009
      4 N1          0.3101   -2.8296    0.5945 N.ar      1 <0>        -0.4772
      5 C4         -0.5197   -1.8071    0.6881 C.ar      1 <0>         0.0940
      6 C5         -0.5976   -0.8642   -0.3139 C.ar      1 <0>        -0.1459
      7 C6          0.2244   -1.0019   -1.4413 C.ar      1 <0>         0.0375
      8 C7          0.1802   -0.0155   -2.5370 C.2       1 <0>         0.0664
      9 C8          1.1863    0.8637   -2.9035 C.2       1 <0>         0.0301
     10 N2          0.7408    1.5832   -3.9447 N.pl3     1 <0>        -0.5047
     11 C9         -0.4825    1.2104   -4.2464 C.2       1 <0>         0.2263
     12 N3         -0.8699    0.2162   -3.3966 N.2       1 <0>        -0.4432
     13 H1          1.2602    2.2943   -4.4186 H         1 <0>         0.4296
     14 C10        -1.3077    1.7781   -5.3338 C.ar      1 <0>         0.0189
     15 C11        -2.5986    1.2972   -5.5582 C.ar      1 <0>        -0.0906
     16 C12        -3.3655    1.8353   -6.5709 C.ar      1 <0>        -0.0499
     17 C13        -2.8536    2.8418   -7.3703 C.ar      1 <0>        -0.4546
     18 C14        -1.5724    3.3188   -7.1572 C.ar      1 <0>        -0.0361
     19 C15        -0.7971    2.7934   -6.1442 C.ar      1 <0>        -0.1314
     20 S1         -3.8373    3.5188   -8.6659 S.o       1 <0>         1.3317
     21 O1         -5.1729    3.2697   -8.2495 O.2       1 <0>        -0.8500
     22 C16        -3.4477    2.4802  -10.1012 C.3       1 <0>        -0.4980
     23 C17         2.5179    0.9832   -2.2646 C.ar      1 <0>        -0.0333
     24 C18         2.6350    0.9275   -0.8761 C.ar      1 <0>        -0.0605
     25 C19         3.8775    1.0344   -0.2862 C.ar      1 <0>        -0.1448
     26 C20         5.0067    1.2076   -1.0704 C.ar      1 <0>         0.1099
     27 C21         4.8947    1.2689   -2.4501 C.ar      1 <0>        -0.1468
     28 C22         3.6572    1.1577   -3.0496 C.ar      1 <0>        -0.0834
     29 F1          6.2206    1.3175   -0.4878 F         1 <0>        -0.1340
     30 H2          1.4477   -2.8472   -3.4683 H         1 <0>         0.0733
     31 H3          2.3094   -1.3410   -3.0720 H         1 <0>         0.0705
     32 H4          2.8615   -2.8886   -2.3877 H         1 <0>         0.0718
     33 H5          1.7611   -3.8516   -0.4844 H         1 <0>         0.1576
     34 H6         -1.1460   -1.7079    1.5624 H         1 <0>         0.1590
     35 H7         -1.2785   -0.0301   -0.2303 H         1 <0>         0.1365
     36 H8         -2.9977    0.5084   -4.9377 H         1 <0>         0.1405
     37 H9         -4.3662    1.4671   -6.7427 H         1 <0>         0.1338
     38 H10        -1.1785    4.1044   -7.7849 H         1 <0>         0.1448
     39 H11         0.2028    3.1665   -5.9788 H         1 <0>         0.1248
     40 H12        -3.7116    1.4454   -9.8832 H         1 <0>         0.0819
     41 H13        -4.0160    2.8258  -10.9648 H         1 <0>         0.1086
     42 H14        -2.3816    2.5454  -10.3182 H         1 <0>         0.1118
     43 H15         1.7550    0.7969   -0.2638 H         1 <0>         0.1349
     44 H16         3.9698    0.9873    0.7889 H         1 <0>         0.1425
     45 H17         5.7776    1.4043   -3.0572 H         1 <0>         0.1420
     46 H18         3.5709    1.2058   -4.1251 H         1 <0>         0.1315
@<TRIPOS>BOND
     1    1    2 1
     2    1   30 1
     3    1   31 1
     4    1   32 1
     5    2    7 ar
     6    2    3 ar
     7    3    4 ar
     8    3   33 1
     9    4    5 ar
    10    5    6 ar
    11    5   34 1
    12    6    7 ar
    13    6   35 1
    14    7    8 1
    15    8   12 1
    16    8    9 2
    17    9   10 1
    18    9   23 1
    19   10   11 1
    20   10   13 1
    21   11   14 1
    22   11   12 2
    23   14   19 ar
    24   14   15 ar
    25   15   16 ar
    26   15   36 1
    27   16   17 ar
    28   16   37 1
    29   17   18 ar
    30   17   20 1
    31   18   19 ar
    32   18   38 1
    33   19   39 1
    34   20   21 2
    35   20   22 1
    36   22   40 1
    37   22   41 1
    38   22   42 1
    39   23   28 ar
    40   23   24 ar
    41   24   25 ar
    42   24   43 1
    43   25   26 ar
    44   25   44 1
    45   26   27 ar
    46   26   29 1
    47   27   28 ar
    48   27   45 1
    49   28   46 1
@<TRIPOS>MOLECULE
ZINC03815758
   47    50     0     0     0
SMALL
USER_CHARGES

@<TRIPOS>ATOM
      1 C1          5.5453   -8.2490    1.3583 C.3       1 <0>         0.0258
      2 O1          4.9235   -6.9624    1.3534 O.3       1 <0>        -0.3168
      3 C2          5.5875   -5.9586    0.7221 C.ar      1 <0>         0.1339
      4 C3          6.8133   -6.2087    0.1197 C.ar      1 <0>        -0.1983
      5 C4          7.4931   -5.1910   -0.5228 C.ar      1 <0>        -0.0709
      6 C5          6.9572   -3.9197   -0.5695 C.ar      1 <0>        -0.1245
      7 C6          5.7264   -3.6599    0.0325 C.ar      1 <0>         0.0134
      8 C7          5.0442   -4.6856    0.6848 C.ar      1 <0>        -0.1461
      9 C8          5.1485   -2.2962   -0.0160 C.2       1 <0>         0.0347
     10 C9          5.8373   -1.1097    0.1765 C.2       1 <0>         0.0612
     11 N1          4.9139   -0.0983    0.0394 N.2       1 <0>        -0.4428
     12 H1          3.1315   -2.6525   -0.4067 H         1 <0>         0.4303
     13 C10         3.7096   -0.6849   -0.2180 C.2       1 <0>         0.2266
     14 N2          3.8621   -1.9896   -0.2432 N.pl3     1 <0>        -0.5049
     15 C11         2.4354    0.0332   -0.4342 C.ar      1 <0>         0.0193
     16 C12         1.2635   -0.6802   -0.6906 C.ar      1 <0>        -0.1286
     17 C13         0.0780   -0.0040   -0.8920 C.ar      1 <0>        -0.0484
     18 C14         0.0492    1.3783   -0.8402 C.ar      1 <0>        -0.4545
     19 C15         1.2073    2.0916   -0.5865 C.ar      1 <0>        -0.0378
     20 C16         2.3994    1.4276   -0.3834 C.ar      1 <0>        -0.0930
     21 S1         -1.4678    2.2345   -1.1058 S.o       1 <0>         1.3327
     22 O2         -2.2414    1.3304   -1.8825 O.2       1 <0>        -0.8525
     23 C17        -2.1880    2.3760    0.5531 C.3       1 <0>        -0.4977
     24 C18         7.2768   -0.9596    0.4614 C.ar      1 <0>         0.0429
     25 C19         7.8986   -1.7279    1.4552 C.ar      1 <0>        -0.1500
     26 C20         9.2471   -1.5576    1.6848 C.ar      1 <0>         0.1013
     27 N3          9.9477   -0.6801    0.9910 N.ar      1 <0>        -0.4830
     28 C21         9.4013    0.0667    0.0497 C.ar      1 <0>         0.1002
     29 C22         8.0602   -0.0406   -0.2501 C.ar      1 <0>        -0.1466
     30 H2          5.6839   -8.5895    0.3322 H         1 <0>         0.0576
     31 H3          6.5143   -8.1824    1.8530 H         1 <0>         0.0584
     32 H4          4.9120   -8.9565    1.8935 H         1 <0>         0.1030
     33 H5          7.2373   -7.2015    0.1536 H         1 <0>         0.1329
     34 H6          8.4464   -5.3909   -0.9894 H         1 <0>         0.1327
     35 H7          7.4908   -3.1267   -1.0723 H         1 <0>         0.1271
     36 H8          4.0928   -4.4887    1.1565 H         1 <0>         0.1282
     37 H9          1.2848   -1.7592   -0.7317 H         1 <0>         0.1203
     38 H10        -0.8294   -0.5548   -1.0909 H         1 <0>         0.1322
     39 H11         1.1780    3.1705   -0.5474 H         1 <0>         0.1465
     40 H12         3.3027    1.9854   -0.1854 H         1 <0>         0.1455
     41 H13        -1.5089    2.9340    1.1977 H         1 <0>         0.1129
     42 H14        -3.1424    2.8990    0.4914 H         1 <0>         0.1085
     43 H15        -2.3456    1.3800    0.9669 H         1 <0>         0.0810
     44 H16         7.3308   -2.4447    2.0298 H         1 <0>         0.1330
     45 H17         9.7362   -2.1472    2.4461 H         1 <0>         0.1574
     46 H18        10.0135    0.7719   -0.4928 H         1 <0>         0.1588
     47 H19         7.6200    0.5738   -1.0216 H         1 <0>         0.1380
@<TRIPOS>BOND
     1    1    2 1
     2    1   30 1
     3    1   31 1
     4    1   32 1
     5    2    3 1
     6    3    8 ar
     7    3    4 ar
     8    4    5 ar
     9    4   33 1
    10    5    6 ar
    11    5   34 1
    12    6    7 ar
    13    6   35 1
    14    7    8 ar
    15    7    9 1
    16    8   36 1
    17    9   14 1
    18    9   10 2
    19   10   11 1
    20   10   24 1
    21   11   13 2
    22   12   14 1
    23   13   15 1
    24   13   14 1
    25   15   20 ar
    26   15   16 ar
    27   16   17 ar
    28   16   37 1
    29   17   18 ar
    30   17   38 1
    31   18   19 ar
    32   18   21 1
    33   19   20 ar
    34   19   39 1
    35   20   40 1
    36   21   22 2
    37   21   23 1
    38   23   41 1
    39   23   42 1
    40   23   43 1
    41   24   29 ar
    42   24   25 ar
    43   25   26 ar
    44   25   44 1
    45   26   27 ar
    46   26   45 1
    47   27   28 ar
    48   28   29 ar
    49   28   46 1
    50   29   47 1
@<TRIPOS>MOLECULE
ZINC03815758
   48    51     0     0     0
SMALL
USER_CHARGES

@<TRIPOS>ATOM
      1 C1          5.5352   -8.2439    1.3940 C.3       1 <0>         0.0219
      2 O1          4.9146   -6.9568    1.3824 O.3       1 <0>        -0.3119
      3 C2          5.5808   -5.9563    0.7482 C.ar      1 <0>         0.1411
      4 C3          6.8076   -6.2100    0.1494 C.ar      1 <0>        -0.1740
      5 C4          7.4896   -5.1956   -0.4960 C.ar      1 <0>        -0.0669
      6 C5          6.9550   -3.9241   -0.5491 C.ar      1 <0>        -0.1129
      7 C6          5.7232   -3.6606    0.0492 C.ar      1 <0>        -0.0315
      8 C7          5.0387   -4.6829    0.7044 C.ar      1 <0>        -0.1323
      9 C8          5.1466   -2.2966   -0.0062 C.2       1 <0>         0.1158
     10 C9          5.8373   -1.1097    0.1765 C.2       1 <0>         0.1210
     11 N1          4.9139   -0.0983    0.0394 N.pl3     1 <0>        -0.5042
     12 H1          5.0924    0.8828    0.1144 H         1 <0>         0.4721
     13 C10         3.7096   -0.6849   -0.2180 C.cat     1 <0>         0.3823
     14 C11         2.4354    0.0332   -0.4342 C.ar      1 <0>        -0.0596
     15 C12         1.2635   -0.6802   -0.6906 C.ar      1 <0>        -0.0892
     16 C13         0.0780   -0.0040   -0.8920 C.ar      1 <0>        -0.0447
     17 C14         0.0492    1.3783   -0.8402 C.ar      1 <0>        -0.4192
     18 C15         1.2073    2.0916   -0.5865 C.ar      1 <0>        -0.0308
     19 C16         2.3994    1.4276   -0.3834 C.ar      1 <0>        -0.0895
     20 S1         -1.4678    2.2345   -1.1058 S.o       1 <0>         1.3380
     21 O2         -2.2414    1.3304   -1.8825 O.2       1 <0>        -0.8359
     22 C17        -2.1880    2.3760    0.5531 C.3       1 <0>        -0.4958
     23 C18         7.2768   -0.9596    0.4614 C.ar      1 <0>        -0.0196
     24 C19         7.8986   -1.7279    1.4552 C.ar      1 <0>        -0.1267
     25 C20         9.2471   -1.5576    1.6848 C.ar      1 <0>         0.1167
     26 N2          9.9477   -0.6801    0.9910 N.ar      1 <0>        -0.4578
     27 C21         9.4013    0.0667    0.0497 C.ar      1 <0>         0.1158
     28 C22         8.0602   -0.0406   -0.2501 C.ar      1 <0>        -0.1477
     29 H2          5.6756   -8.5889    0.3696 H         1 <0>         0.0625
     30 H3          6.5032   -8.1761    1.8904 H         1 <0>         0.0630
     31 H4          4.9002   -8.9486    1.9309 H         1 <0>         0.1102
     32 H5          7.2306   -7.2030    0.1884 H         1 <0>         0.1430
     33 H6          8.4437   -5.3984   -0.9598 H         1 <0>         0.1425
     34 H7          7.4903   -3.1337   -1.0542 H         1 <0>         0.1316
     35 H8          4.0865   -4.4832    1.1733 H         1 <0>         0.1348
     36 H9          1.2848   -1.7592   -0.7317 H         1 <0>         0.1341
     37 H10        -0.8294   -0.5548   -1.0909 H         1 <0>         0.1486
     38 H11         1.1780    3.1705   -0.5474 H         1 <0>         0.1616
     39 H12         3.3027    1.9854   -0.1854 H         1 <0>         0.1387
     40 H13        -1.5089    2.9340    1.1977 H         1 <0>         0.1163
     41 H14        -3.1424    2.8990    0.4914 H         1 <0>         0.1171
     42 H15        -2.3456    1.3800    0.9669 H         1 <0>         0.0853
     43 H16         7.3308   -2.4447    2.0298 H         1 <0>         0.1456
     44 H17         9.7362   -2.1472    2.4461 H         1 <0>         0.1715
     45 H18        10.0135    0.7719   -0.4928 H         1 <0>         0.1713
     46 H19         7.6200    0.5738   -1.0216 H         1 <0>         0.1422
     47 N3          3.8605   -1.9902   -0.2375 N.pl3     1 <0>        -0.4738
     48 H20         3.1101   -2.6709   -0.4041 H         1 <0>         0.4793
@<TRIPOS>BOND
     1    1    2 1
     2    1   29 1
     3    1   30 1
     4    1   31 1
     5    2    3 1
     6    3    8 ar
     7    3    4 ar
     8    4    5 ar
     9    4   32 1
    10    5    6 ar
    11    5   33 1
    12    6    7 ar
    13    6   34 1
    14    7    8 ar
    15    7    9 1
    16    8   35 1
    17    9   10 2
    18    9   47 1
    19   10   11 1
    20   10   23 1
    21   11   12 1
    22   11   13 1
    23   13   14 1
    24   13   47 2
    25   14   19 ar
    26   14   15 ar
    27   15   16 ar
    28   15   36 1
    29   16   17 ar
    30   16   37 1
    31   17   18 ar
    32   17   20 1
    33   18   19 ar
    34   18   38 1
    35   19   39 1
    36   20   21 2
    37   20   22 1
    38   22   40 1
    39   22   41 1
    40   22   42 1
    41   23   28 ar
    42   23   24 ar
    43   24   25 ar
    44   24   43 1
    45   25   26 ar
    46   25   44 1
    47   26   27 ar
    48   27   28 ar
    49   27   45 1
    50   28   46 1
    51   47   48 1
@<TRIPOS>MOLECULE
ZINC03815758
   47    50     0     0     0
SMALL
USER_CHARGES

@<TRIPOS>ATOM
      1 C1          5.5453   -8.2490    1.3583 C.3       1 <0>         0.0258
      2 O1          4.9235   -6.9624    1.3534 O.3       1 <0>        -0.3168
      3 C2          5.5875   -5.9586    0.7221 C.ar      1 <0>         0.1339
      4 C3          6.8133   -6.2087    0.1197 C.ar      1 <0>        -0.1983
      5 C4          7.4931   -5.1910   -0.5228 C.ar      1 <0>        -0.0709
      6 C5          6.9572   -3.9197   -0.5695 C.ar      1 <0>        -0.1245
      7 C6          5.7264   -3.6599    0.0325 C.ar      1 <0>         0.0134
      8 C7          5.0442   -4.6856    0.6848 C.ar      1 <0>        -0.1461
      9 C8          5.1485   -2.2962   -0.0160 C.2       1 <0>         0.0347
     10 C9          5.8373   -1.1097    0.1765 C.2       1 <0>         0.0612
     11 N1          4.9139   -0.0983    0.0394 N.2       1 <0>        -0.4428
     12 H1          3.1315   -2.6525   -0.4067 H         1 <0>         0.4303
     13 C10         3.7096   -0.6849   -0.2180 C.2       1 <0>         0.2266
     14 N2          3.8621   -1.9896   -0.2432 N.pl3     1 <0>        -0.5049
     15 C11         2.4354    0.0332   -0.4342 C.ar      1 <0>         0.0193
     16 C12         1.2635   -0.6802   -0.6906 C.ar      1 <0>        -0.1286
     17 C13         0.0780   -0.0040   -0.8920 C.ar      1 <0>        -0.0484
     18 C14         0.0492    1.3783   -0.8402 C.ar      1 <0>        -0.4545
     19 C15         1.2073    2.0916   -0.5865 C.ar      1 <0>        -0.0378
     20 C16         2.3994    1.4276   -0.3834 C.ar      1 <0>        -0.0930
     21 S1         -1.4678    2.2345   -1.1058 S.o       1 <0>         1.3327
     22 O2         -2.2414    1.3304   -1.8825 O.2       1 <0>        -0.8525
     23 C17        -2.1880    2.3760    0.5531 C.3       1 <0>        -0.4977
     24 C18         7.2768   -0.9596    0.4614 C.ar      1 <0>         0.0429
     25 C19         7.8986   -1.7279    1.4552 C.ar      1 <0>        -0.1500
     26 C20         9.2471   -1.5576    1.6848 C.ar      1 <0>         0.1013
     27 N3          9.9477   -0.6801    0.9910 N.ar      1 <0>        -0.4830
     28 C21         9.4013    0.0667    0.0497 C.ar      1 <0>         0.1002
     29 C22         8.0602   -0.0406   -0.2501 C.ar      1 <0>        -0.1466
     30 H2          5.6839   -8.5895    0.3322 H         1 <0>         0.0576
     31 H3          6.5143   -8.1824    1.8530 H         1 <0>         0.0584
     32 H4          4.9120   -8.9565    1.8935 H         1 <0>         0.1030
     33 H5          7.2373   -7.2015    0.1536 H         1 <0>         0.1329
     34 H6          8.4464   -5.3909   -0.9894 H         1 <0>         0.1327
     35 H7          7.4908   -3.1267   -1.0723 H         1 <0>         0.1271
     36 H8          4.0928   -4.4887    1.1565 H         1 <0>         0.1282
     37 H9          1.2848   -1.7592   -0.7317 H         1 <0>         0.1203
     38 H10        -0.8294   -0.5548   -1.0909 H         1 <0>         0.1322
     39 H11         1.1780    3.1705   -0.5474 H         1 <0>         0.1465
     40 H12         3.3027    1.9854   -0.1854 H         1 <0>         0.1455
     41 H13        -1.5089    2.9340    1.1977 H         1 <0>         0.1129
     42 H14        -3.1424    2.8990    0.4914 H         1 <0>         0.1085
     43 H15        -2.3456    1.3800    0.9669 H         1 <0>         0.0810
     44 H16         7.3308   -2.4447    2.0298 H         1 <0>         0.1330
     45 H17         9.7362   -2.1472    2.4461 H         1 <0>         0.1574
     46 H18        10.0135    0.7719   -0.4928 H         1 <0>         0.1588
     47 H19         7.6200    0.5738   -1.0216 H         1 <0>         0.1380
@<TRIPOS>BOND
     1    1    2 1
     2    1   30 1
     3    1   31 1
     4    1   32 1
     5    2    3 1
     6    3    8 ar
     7    3    4 ar
     8    4    5 ar
     9    4   33 1
    10    5    6 ar
    11    5   34 1
    12    6    7 ar
    13    6   35 1
    14    7    8 ar
    15    7    9 1
    16    8   36 1
    17    9   14 1
    18    9   10 2
    19   10   11 1
    20   10   24 1
    21   11   13 2
    22   12   14 1
    23   13   15 1
    24   13   14 1
    25   15   20 ar
    26   15   16 ar
    27   16   17 ar
    28   16   37 1
    29   17   18 ar
    30   17   38 1
    31   18   19 ar
    32   18   21 1
    33   19   20 ar
    34   19   39 1
    35   20   40 1
    36   21   22 2
    37   21   23 1
    38   23   41 1
    39   23   42 1
    40   23   43 1
    41   24   29 ar
    42   24   25 ar
    43   25   26 ar
    44   25   44 1
    45   26   27 ar
    46   26   45 1
    47   27   28 ar
    48   28   29 ar
    49   28   46 1
    50   29   47 1
@<TRIPOS>MOLECULE
ZINC03815759
   42    45     0     0     0
SMALL
USER_CHARGES

@<TRIPOS>ATOM
      1 C1         -6.1530   10.4025    3.8405 C.3       1 <0>         0.0240
      2 O1         -6.8431    9.6473    2.8427 O.3       1 <0>        -0.3140
      3 C2         -6.1715    8.6087    2.2812 C.ar      1 <0>         0.1430
      4 C3         -6.7849    7.8341    1.3050 C.ar      1 <0>        -0.1470
      5 C4         -6.1068    6.7797    0.7325 C.ar      1 <0>        -0.0696
      6 C5         -4.8015    6.4903    1.1355 C.ar      1 <0>        -0.0626
      7 C6         -4.1906    7.2676    2.1217 C.ar      1 <0>        -0.0304
      8 C7         -4.8734    8.3238    2.6851 C.ar      1 <0>        -0.2061
      9 C8         -4.0708    5.3608    0.5243 C.2       1 <0>         0.2499
     10 N1         -2.7993    4.9789    0.8385 N.2       1 <0>        -0.4540
     11 H1         -5.4545    4.6266   -0.8133 H         1 <0>         0.4284
     12 C9         -2.4934    3.8943    0.0459 C.2       1 <0>         0.0594
     13 C10        -3.6117    3.6535   -0.7350 C.2       1 <0>         0.0262
     14 N2         -4.5422    4.5640   -0.4086 N.pl3     1 <0>        -0.5103
     15 C11        -3.7571    2.5795   -1.7453 C.ar      1 <0>        -0.0320
     16 C12        -2.6626    2.1942   -2.5191 C.ar      1 <0>        -0.0625
     17 C13        -2.8016    1.1900   -3.4547 C.ar      1 <0>        -0.1448
     18 C14        -4.0286    0.5716   -3.6336 C.ar      1 <0>         0.1075
     19 C15        -5.1203    0.9549   -2.8711 C.ar      1 <0>        -0.1467
     20 C16        -4.9901    1.9544   -1.9293 C.ar      1 <0>        -0.0852
     21 F1         -4.1611   -0.4078   -4.5547 F         1 <0>        -0.1346
     22 C17        -1.2258    3.1408    0.0302 C.ar      1 <0>         0.0418
     23 C18        -1.2207    1.7390    0.0173 C.ar      1 <0>        -0.1548
     24 C19        -0.0126    1.0758    0.0080 C.ar      1 <0>         0.1011
     25 N3          1.1269    1.7422    0.0007 N.ar      1 <0>        -0.4834
     26 C20         1.1679    3.0616    0.0073 C.ar      1 <0>         0.1009
     27 C21         0.0081    3.8061    0.0220 C.ar      1 <0>        -0.1471
     28 H2         -5.8811    9.7477    4.6684 H         1 <0>         0.0591
     29 H3         -5.2509   10.8361    3.4088 H         1 <0>         0.0591
     30 H4         -6.8006   11.1997    4.2054 H         1 <0>         0.1036
     31 H5         -7.7944    8.0586    0.9938 H         1 <0>         0.1385
     32 H6         -6.5844    6.1779   -0.0265 H         1 <0>         0.1253
     33 H7         -3.1830    7.0440    2.4395 H         1 <0>         0.1416
     34 H8         -4.4000    8.9284    3.4445 H         1 <0>         0.1368
     35 H9         -1.7070    2.6787   -2.3835 H         1 <0>         0.1357
     36 H10        -1.9537    0.8885   -4.0518 H         1 <0>         0.1424
     37 H11        -6.0749    0.4704   -3.0145 H         1 <0>         0.1412
     38 H12        -5.8415    2.2526   -1.3357 H         1 <0>         0.1305
     39 H13        -2.1491    1.1872    0.0188 H         1 <0>         0.1341
     40 H14         0.0021   -0.0041    0.0020 H         1 <0>         0.1579
     41 H15         2.1235    3.5647    0.0009 H         1 <0>         0.1587
     42 H16         0.0493    4.8853    0.0274 H         1 <0>         0.1383
@<TRIPOS>BOND
     1    1    2 1
     2    1   28 1
     3    1   29 1
     4    1   30 1
     5    2    3 1
     6    3    8 ar
     7    3    4 ar
     8    4    5 ar
     9    4   31 1
    10    5    6 ar
    11    5   32 1
    12    6    7 ar
    13    6    9 1
    14    7    8 ar
    15    7   33 1
    16    8   34 1
    17    9   10 2
    18    9   14 1
    19   10   12 1
    20   11   14 1
    21   12   13 2
    22   12   22 1
    23   13   14 1
    24   13   15 1
    25   15   20 ar
    26   15   16 ar
    27   16   17 ar
    28   16   35 1
    29   17   18 ar
    30   17   36 1
    31   18   19 ar
    32   18   21 1
    33   19   20 ar
    34   19   37 1
    35   20   38 1
    36   22   27 ar
    37   22   23 ar
    38   23   24 ar
    39   23   39 1
    40   24   25 ar
    41   24   40 1
    42   25   26 ar
    43   26   27 ar
    44   26   41 1
    45   27   42 1
@<TRIPOS>MOLECULE
ZINC03815759
   43    46     0     0     0
SMALL
USER_CHARGES

@<TRIPOS>ATOM
      1 C1         -6.1530   10.4025    3.8405 C.3       1 <0>         0.0170
      2 O1         -6.8431    9.6473    2.8427 O.3       1 <0>        -0.2990
      3 C2         -6.1715    8.6087    2.2812 C.ar      1 <0>         0.1906
      4 C3         -6.7849    7.8341    1.3050 C.ar      1 <0>        -0.1425
      5 C4         -6.1068    6.7797    0.7325 C.ar      1 <0>        -0.0304
      6 C5         -4.8015    6.4903    1.1355 C.ar      1 <0>        -0.1423
      7 C6         -4.1906    7.2676    2.1217 C.ar      1 <0>        -0.0238
      8 C7         -4.8734    8.3238    2.6851 C.ar      1 <0>        -0.2037
      9 C8         -4.0708    5.3608    0.5243 C.cat     1 <0>         0.4060
     10 N1         -2.7993    4.9789    0.8385 N.pl3     1 <0>        -0.5135
     11 H1         -2.2015    5.4061    1.5168 H         1 <0>         0.4702
     12 C9         -2.4934    3.8943    0.0459 C.2       1 <0>         0.1112
     13 C10        -3.6148    3.6483   -0.7290 C.2       1 <0>         0.1134
     14 C11        -3.7623    2.5705   -1.7350 C.ar      1 <0>        -0.0817
     15 C12        -2.6691    2.1813   -2.5086 C.ar      1 <0>        -0.0469
     16 C13        -2.8101    1.1736   -3.4402 C.ar      1 <0>        -0.1458
     17 C14        -4.0379    0.5557   -3.6153 C.ar      1 <0>         0.1416
     18 C15        -5.1284    0.9429   -2.8530 C.ar      1 <0>        -0.1465
     19 C16        -4.9961    1.9459   -1.9152 C.ar      1 <0>        -0.0634
     20 F1         -4.1724   -0.4271   -4.5325 F         1 <0>        -0.1210
     21 C17        -1.2258    3.1408    0.0302 C.ar      1 <0>        -0.0184
     22 C18        -1.2207    1.7390    0.0173 C.ar      1 <0>        -0.1328
     23 C19        -0.0126    1.0758    0.0080 C.ar      1 <0>         0.1166
     24 N2          1.1269    1.7422    0.0007 N.ar      1 <0>        -0.4586
     25 C20         1.1679    3.0616    0.0073 C.ar      1 <0>         0.1166
     26 C21         0.0081    3.8061    0.0220 C.ar      1 <0>        -0.1493
     27 H2         -5.8811    9.7477    4.6684 H         1 <0>         0.0664
     28 H3         -5.2509   10.8361    3.4088 H         1 <0>         0.0665
     29 H4         -6.8006   11.1997    4.2054 H         1 <0>         0.1154
     30 H5         -7.7944    8.0586    0.9938 H         1 <0>         0.1559
     31 H6         -6.5844    6.1779   -0.0265 H         1 <0>         0.1390
     32 H7         -3.1830    7.0440    2.4395 H         1 <0>         0.1348
     33 H8         -4.4000    8.9284    3.4445 H         1 <0>         0.1518
     34 H9         -1.7129    2.6654   -2.3759 H         1 <0>         0.1400
     35 H10        -1.9632    0.8690   -4.0371 H         1 <0>         0.1525
     36 H11        -6.0836    0.4588   -2.9935 H         1 <0>         0.1525
     37 H12        -5.8466    2.2472   -1.3218 H         1 <0>         0.1375
     38 H13        -2.1491    1.1872    0.0188 H         1 <0>         0.1464
     39 H14         0.0021   -0.0041    0.0020 H         1 <0>         0.1718
     40 H15         2.1235    3.5647    0.0009 H         1 <0>         0.1709
     41 H16         0.0493    4.8853    0.0274 H         1 <0>         0.1419
     42 N3         -4.5447    4.5609   -0.4053 N.pl3     1 <0>        -0.4840
     43 H17        -5.4818    4.6245   -0.8200 H         1 <0>         0.4771
@<TRIPOS>BOND
     1    1    2 1
     2    1   27 1
     3    1   28 1
     4    1   29 1
     5    2    3 1
     6    3    8 ar
     7    3    4 ar
     8    4    5 ar
     9    4   30 1
    10    5    6 ar
    11    5   31 1
    12    6    7 ar
    13    6    9 1
    14    7    8 ar
    15    7   32 1
    16    8   33 1
    17    9   10 1
    18    9   42 2
    19   10   11 1
    20   10   12 1
    21   12   13 2
    22   12   21 1
    23   13   14 1
    24   13   42 1
    25   14   19 ar
    26   14   15 ar
    27   15   16 ar
    28   15   34 1
    29   16   17 ar
    30   16   35 1
    31   17   18 ar
    32   17   20 1
    33   18   19 ar
    34   18   36 1
    35   19   37 1
    36   21   26 ar
    37   21   22 ar
    38   22   23 ar
    39   22   38 1
    40   23   24 ar
    41   23   39 1
    42   24   25 ar
    43   25   26 ar
    44   25   40 1
    45   26   41 1
    46   42   43 1
@<TRIPOS>MOLECULE
ZINC03815759
   42    45     0     0     0
SMALL
USER_CHARGES

@<TRIPOS>ATOM
      1 C1         -6.1530   10.4025    3.8405 C.3       1 <0>         0.0240
      2 O1         -6.8431    9.6473    2.8427 O.3       1 <0>        -0.3140
      3 C2         -6.1715    8.6087    2.2812 C.ar      1 <0>         0.1430
      4 C3         -6.7849    7.8341    1.3050 C.ar      1 <0>        -0.1470
      5 C4         -6.1068    6.7797    0.7325 C.ar      1 <0>        -0.0696
      6 C5         -4.8015    6.4903    1.1355 C.ar      1 <0>        -0.0626
      7 C6         -4.1906    7.2676    2.1217 C.ar      1 <0>        -0.0304
      8 C7         -4.8734    8.3238    2.6851 C.ar      1 <0>        -0.2061
      9 C8         -4.0708    5.3608    0.5243 C.2       1 <0>         0.2499
     10 N1         -2.7993    4.9789    0.8385 N.2       1 <0>        -0.4540
     11 H1         -5.4545    4.6266   -0.8133 H         1 <0>         0.4284
     12 C9         -2.4934    3.8943    0.0459 C.2       1 <0>         0.0594
     13 C10        -3.6117    3.6535   -0.7350 C.2       1 <0>         0.0262
     14 N2         -4.5422    4.5640   -0.4086 N.pl3     1 <0>        -0.5103
     15 C11        -3.7571    2.5795   -1.7453 C.ar      1 <0>        -0.0320
     16 C12        -2.6626    2.1942   -2.5191 C.ar      1 <0>        -0.0625
     17 C13        -2.8016    1.1900   -3.4547 C.ar      1 <0>        -0.1448
     18 C14        -4.0286    0.5716   -3.6336 C.ar      1 <0>         0.1075
     19 C15        -5.1203    0.9549   -2.8711 C.ar      1 <0>        -0.1467
     20 C16        -4.9901    1.9544   -1.9293 C.ar      1 <0>        -0.0852
     21 F1         -4.1611   -0.4078   -4.5547 F         1 <0>        -0.1346
     22 C17        -1.2258    3.1408    0.0302 C.ar      1 <0>         0.0418
     23 C18        -1.2207    1.7390    0.0173 C.ar      1 <0>        -0.1548
     24 C19        -0.0126    1.0758    0.0080 C.ar      1 <0>         0.1011
     25 N3          1.1269    1.7422    0.0007 N.ar      1 <0>        -0.4834
     26 C20         1.1679    3.0616    0.0073 C.ar      1 <0>         0.1009
     27 C21         0.0081    3.8061    0.0220 C.ar      1 <0>        -0.1471
     28 H2         -5.8811    9.7477    4.6684 H         1 <0>         0.0591
     29 H3         -5.2509   10.8361    3.4088 H         1 <0>         0.0591
     30 H4         -6.8006   11.1997    4.2054 H         1 <0>         0.1036
     31 H5         -7.7944    8.0586    0.9938 H         1 <0>         0.1385
     32 H6         -6.5844    6.1779   -0.0265 H         1 <0>         0.1253
     33 H7         -3.1830    7.0440    2.4395 H         1 <0>         0.1416
     34 H8         -4.4000    8.9284    3.4445 H         1 <0>         0.1368
     35 H9         -1.7070    2.6787   -2.3835 H         1 <0>         0.1357
     36 H10        -1.9537    0.8885   -4.0518 H         1 <0>         0.1424
     37 H11        -6.0749    0.4704   -3.0145 H         1 <0>         0.1412
     38 H12        -5.8415    2.2526   -1.3357 H         1 <0>         0.1305
     39 H13        -2.1491    1.1872    0.0188 H         1 <0>         0.1341
     40 H14         0.0021   -0.0041    0.0020 H         1 <0>         0.1579
     41 H15         2.1235    3.5647    0.0009 H         1 <0>         0.1587
     42 H16         0.0493    4.8853    0.0274 H         1 <0>         0.1383
@<TRIPOS>BOND
     1    1    2 1
     2    1   28 1
     3    1   29 1
     4    1   30 1
     5    2    3 1
     6    3    8 ar
     7    3    4 ar
     8    4    5 ar
     9    4   31 1
    10    5    6 ar
    11    5   32 1
    12    6    7 ar
    13    6    9 1
    14    7    8 ar
    15    7   33 1
    16    8   34 1
    17    9   10 2
    18    9   14 1
    19   10   12 1
    20   11   14 1
    21   12   13 2
    22   12   22 1
    23   13   14 1
    24   13   15 1
    25   15   20 ar
    26   15   16 ar
    27   16   17 ar
    28   16   35 1
    29   17   18 ar
    30   17   36 1
    31   18   19 ar
    32   18   21 1
    33   19   20 ar
    34   19   37 1
    35   20   38 1
    36   22   27 ar
    37   22   23 ar
    38   23   24 ar
    39   23   39 1
    40   24   25 ar
    41   24   40 1
    42   25   26 ar
    43   26   27 ar
    44   26   41 1
    45   27   42 1
@<TRIPOS>MOLECULE
ZINC03815761
   57    60     0     0     0
SMALL
USER_CHARGES

@<TRIPOS>ATOM
      1 C1         -9.4664    6.0623    0.4355 C.3       1 <0>        -0.0487
      2 C2        -10.6726    4.3804    1.6922 C.3       1 <0>        -0.0426
      3 C3         -8.3094    4.0965    1.2478 C.3       1 <0>        -0.0028
      4 C4         -6.9570    4.8092    1.3102 C.3       1 <0>        -0.1524
      5 C5         -5.8371    3.8028    1.0382 C.3       1 <0>         0.0607
      6 O1         -4.5740    4.4685    1.0965 O.3       1 <0>        -0.3112
      7 C6         -3.4676    3.7120    0.8760 C.ar      1 <0>         0.1320
      8 C7         -2.2086    4.2974    0.9183 C.ar      1 <0>        -0.1385
      9 C8         -1.0836    3.5333    0.6955 C.ar      1 <0>        -0.0705
     10 C9         -1.2106    2.1689    0.4265 C.ar      1 <0>        -0.0432
     11 C10        -2.4784    1.5855    0.3788 C.ar      1 <0>        -0.0337
     12 C11        -3.5981    2.3553    0.6083 C.ar      1 <0>        -0.2026
     13 C12        -0.0069    1.3459    0.1872 C.2       1 <0>         0.2334
     14 N1         -0.0043    0.0089   -0.0841 N.2       1 <0>        -0.4504
     15 H1          1.5059    2.7309    0.3771 H         1 <0>         0.4288
     16 C13         1.3103   -0.3701   -0.2464 C.2       1 <0>         0.0616
     17 C14         2.0720    0.7707   -0.0544 C.2       1 <0>         0.0358
     18 N2          1.2317    1.7853    0.2018 N.pl3     1 <0>        -0.5085
     19 C15         3.5495    0.8569   -0.1258 C.ar      1 <0>        -0.0401
     20 C16         4.3371   -0.1360    0.4562 C.ar      1 <0>        -0.0585
     21 C17         5.7121   -0.0542    0.3826 C.ar      1 <0>        -0.1455
     22 C18         6.3112    1.0179   -0.2592 C.ar      1 <0>         0.1129
     23 C19         5.5331    2.0098   -0.8340 C.ar      1 <0>        -0.1480
     24 C20         4.1571    1.9341   -0.7701 C.ar      1 <0>        -0.0816
     25 F1          7.6584    1.0964   -0.3243 F         1 <0>        -0.1324
     26 C21         1.8082   -1.7237   -0.5536 C.ar      1 <0>         0.0390
     27 C22         2.7545   -1.9309   -1.5670 C.ar      1 <0>        -0.1526
     28 C23         3.1950   -3.2126   -1.8172 C.ar      1 <0>         0.1034
     29 N3          2.7314   -4.2364   -1.1248 N.ar      1 <0>        -0.4812
     30 C24         1.8369   -4.0870   -0.1656 C.ar      1 <0>         0.1015
     31 C25         1.3443   -2.8405    0.1555 C.ar      1 <0>        -0.1481
     32 H2         -9.6683    5.5624   -0.5118 H         1 <0>         0.1246
     33 H3        -10.2703    6.7652    0.6540 H         1 <0>         0.1247
     34 H4         -8.5212    6.6010    0.3679 H         1 <0>         0.1230
     35 H5        -10.6042    3.6965    2.5381 H         1 <0>         0.1227
     36 H6        -11.4509    5.1190    1.8840 H         1 <0>         0.1246
     37 H7        -10.9181    3.8196    0.7904 H         1 <0>         0.1241
     38 H8         -8.4451    3.6607    0.2579 H         1 <0>         0.1355
     39 H9         -8.3394    3.3076    1.9993 H         1 <0>         0.1339
     40 H10        -6.8213    5.2450    2.3001 H         1 <0>         0.0993
     41 H11        -6.9270    5.5981    0.5587 H         1 <0>         0.0994
     42 H12        -5.9728    3.3670    0.0483 H         1 <0>         0.0746
     43 H13        -5.8671    3.0139    1.7897 H         1 <0>         0.0749
     44 H14        -2.1113    5.3527    1.1263 H         1 <0>         0.1395
     45 H15        -0.1051    3.9891    0.7286 H         1 <0>         0.1294
     46 H16        -2.5810    0.5316    0.1663 H         1 <0>         0.1444
     47 H17        -4.5787    1.9039    0.5763 H         1 <0>         0.1330
     48 H18         3.8711   -0.9697    0.9605 H         1 <0>         0.1349
     49 H19         6.3228   -0.8246    0.8297 H         1 <0>         0.1437
     50 H20         6.0045    2.8439   -1.3326 H         1 <0>         0.1423
     51 H21         3.5514    2.7079   -1.2182 H         1 <0>         0.1309
     52 H22         3.1351   -1.0985   -2.1403 H         1 <0>         0.1338
     53 H23         3.9266   -3.3822   -2.5933 H         1 <0>         0.1589
     54 H24         1.4859   -4.9537    0.3748 H         1 <0>         0.1591
     55 H25         0.6126   -2.7259    0.9415 H         1 <0>         0.1369
     56 N4         -9.3784    5.0765    1.5334 N.4       1 <0>        -0.3970
     57 H26        -9.1551    5.5687    2.4064 H         1 <0>         0.4328
@<TRIPOS>BOND
     1    1   32 1
     2    1   33 1
     3    1   34 1
     4    1   56 1
     5    2   35 1
     6    2   36 1
     7    2   37 1
     8    2   56 1
     9    3    4 1
    10    3   38 1
    11    3   39 1
    12    3   56 1
    13    4    5 1
    14    4   40 1
    15    4   41 1
    16    5    6 1
    17    5   42 1
    18    5   43 1
    19    6    7 1
    20    7   12 ar
    21    7    8 ar
    22    8    9 ar
    23    8   44 1
    24    9   10 ar
    25    9   45 1
    26   10   11 ar
    27   10   13 1
    28   11   12 ar
    29   11   46 1
    30   12   47 1
    31   13   14 2
    32   13   18 1
    33   14   16 1
    34   15   18 1
    35   16   17 2
    36   16   26 1
    37   17   18 1
    38   17   19 1
    39   19   24 ar
    40   19   20 ar
    41   20   21 ar
    42   20   48 1
    43   21   22 ar
    44   21   49 1
    45   22   23 ar
    46   22   25 1
    47   23   24 ar
    48   23   50 1
    49   24   51 1
    50   26   31 ar
    51   26   27 ar
    52   27   28 ar
    53   27   52 1
    54   28   29 ar
    55   28   53 1
    56   29   30 ar
    57   30   31 ar
    58   30   54 1
    59   31   55 1
    60   56   57 1
@<TRIPOS>MOLECULE
ZINC03815761
   58    61     0     0     0
SMALL
USER_CHARGES

@<TRIPOS>ATOM
      1 C1         -9.4664    6.0623    0.4355 C.3       1 <0>        -0.0494
      2 C2        -10.6726    4.3804    1.6922 C.3       1 <0>        -0.0435
      3 C3         -8.3094    4.0965    1.2478 C.3       1 <0>        -0.0023
      4 C4         -6.9570    4.8092    1.3102 C.3       1 <0>        -0.1549
      5 C5         -5.8371    3.8028    1.0382 C.3       1 <0>         0.0570
      6 O1         -4.5740    4.4685    1.0965 O.3       1 <0>        -0.2994
      7 C6         -3.4676    3.7120    0.8760 C.ar      1 <0>         0.1805
      8 C7         -2.2086    4.2974    0.9183 C.ar      1 <0>        -0.1348
      9 C8         -1.0836    3.5333    0.6955 C.ar      1 <0>        -0.0308
     10 C9         -1.2106    2.1689    0.4265 C.ar      1 <0>        -0.1239
     11 C10        -2.4784    1.5855    0.3788 C.ar      1 <0>        -0.0269
     12 C11        -3.5981    2.3553    0.6083 C.ar      1 <0>        -0.2008
     13 C12        -0.0069    1.3459    0.1872 C.cat     1 <0>         0.3899
     14 N1         -0.0043    0.0089   -0.0841 N.pl3     1 <0>        -0.5097
     15 H1         -0.8062   -0.5847   -0.1524 H         1 <0>         0.4699
     16 C13         1.3103   -0.3701   -0.2464 C.2       1 <0>         0.1184
     17 C14         2.0714    0.7727   -0.0642 C.2       1 <0>         0.1184
     18 C15         3.5485    0.8603   -0.1425 C.ar      1 <0>        -0.0893
     19 C16         4.3397   -0.1319    0.4358 C.ar      1 <0>        -0.0431
     20 C17         5.7143   -0.0487    0.3557 C.ar      1 <0>        -0.1462
     21 C18         6.3093    1.0239   -0.2889 C.ar      1 <0>         0.1458
     22 C19         5.5276    2.0151   -0.8600 C.ar      1 <0>        -0.1474
     23 C20         4.1520    1.9381   -0.7897 C.ar      1 <0>        -0.0613
     24 F1          7.6561    1.1037   -0.3603 F         1 <0>        -0.1190
     25 C21         1.8082   -1.7237   -0.5536 C.ar      1 <0>        -0.0228
     26 C22         2.7545   -1.9309   -1.5670 C.ar      1 <0>        -0.1296
     27 C23         3.1950   -3.2126   -1.8172 C.ar      1 <0>         0.1187
     28 N2          2.7314   -4.2364   -1.1248 N.ar      1 <0>        -0.4561
     29 C24         1.8369   -4.0870   -0.1656 C.ar      1 <0>         0.1170
     30 C25         1.3443   -2.8405    0.1555 C.ar      1 <0>        -0.1494
     31 H2         -9.6683    5.5624   -0.5118 H         1 <0>         0.1253
     32 H3        -10.2703    6.7652    0.6540 H         1 <0>         0.1274
     33 H4         -8.5212    6.6010    0.3679 H         1 <0>         0.1222
     34 H5        -10.6042    3.6965    2.5381 H         1 <0>         0.1233
     35 H6        -11.4509    5.1190    1.8840 H         1 <0>         0.1273
     36 H7        -10.9181    3.8196    0.7904 H         1 <0>         0.1250
     37 H8         -8.4451    3.6607    0.2579 H         1 <0>         0.1356
     38 H9         -8.3394    3.3076    1.9993 H         1 <0>         0.1340
     39 H10        -6.8213    5.2450    2.3001 H         1 <0>         0.1028
     40 H11        -6.9270    5.5981    0.5587 H         1 <0>         0.1029
     41 H12        -5.9728    3.3670    0.0483 H         1 <0>         0.0808
     42 H13        -5.8671    3.0139    1.7897 H         1 <0>         0.0810
     43 H14        -2.1113    5.3527    1.1263 H         1 <0>         0.1569
     44 H15        -0.1051    3.9891    0.7286 H         1 <0>         0.1430
     45 H16        -2.5810    0.5316    0.1663 H         1 <0>         0.1376
     46 H17        -4.5787    1.9039    0.5763 H         1 <0>         0.1481
     47 H18         3.8769   -0.9660    0.9423 H         1 <0>         0.1396
     48 H19         6.3278   -0.8186    0.8000 H         1 <0>         0.1536
     49 H20         5.9959    2.8496   -1.3608 H         1 <0>         0.1533
     50 H21         3.5435    2.7113   -1.2349 H         1 <0>         0.1378
     51 H22         3.1351   -1.0985   -2.1403 H         1 <0>         0.1463
     52 H23         3.9266   -3.3822   -2.5933 H         1 <0>         0.1729
     53 H24         1.4859   -4.9537    0.3748 H         1 <0>         0.1714
     54 H25         0.6126   -2.7259    0.9415 H         1 <0>         0.1411
     55 N3         -9.3784    5.0765    1.5334 N.4       1 <0>        -0.3971
     56 H26        -9.1551    5.5687    2.4064 H         1 <0>         0.4338
     57 N4          1.2315    1.7872    0.1961 N.pl3     1 <0>        -0.4785
     58 H27         1.5130    2.7583    0.3747 H         1 <0>         0.4778
@<TRIPOS>BOND
     1    1   31 1
     2    1   32 1
     3    1   33 1
     4    1   55 1
     5    2   34 1
     6    2   35 1
     7    2   36 1
     8    2   55 1
     9    3    4 1
    10    3   37 1
    11    3   38 1
    12    3   55 1
    13    4    5 1
    14    4   39 1
    15    4   40 1
    16    5    6 1
    17    5   41 1
    18    5   42 1
    19    6    7 1
    20    7   12 ar
    21    7    8 ar
    22    8    9 ar
    23    8   43 1
    24    9   10 ar
    25    9   44 1
    26   10   11 ar
    27   10   13 1
    28   11   12 ar
    29   11   45 1
    30   12   46 1
    31   13   14 1
    32   13   57 2
    33   14   15 1
    34   14   16 1
    35   16   17 2
    36   16   25 1
    37   17   18 1
    38   17   57 1
    39   18   23 ar
    40   18   19 ar
    41   19   20 ar
    42   19   47 1
    43   20   21 ar
    44   20   48 1
    45   21   22 ar
    46   21   24 1
    47   22   23 ar
    48   22   49 1
    49   23   50 1
    50   25   30 ar
    51   25   26 ar
    52   26   27 ar
    53   26   51 1
    54   27   28 ar
    55   27   52 1
    56   28   29 ar
    57   29   30 ar
    58   29   53 1
    59   30   54 1
    60   55   56 1
    61   57   58 1
@<TRIPOS>MOLECULE
ZINC03815761
   57    60     0     0     0
SMALL
USER_CHARGES

@<TRIPOS>ATOM
      1 C1         -9.4664    6.0623    0.4355 C.3       1 <0>        -0.0487
      2 C2        -10.6726    4.3804    1.6922 C.3       1 <0>        -0.0426
      3 C3         -8.3094    4.0965    1.2478 C.3       1 <0>        -0.0028
      4 C4         -6.9570    4.8092    1.3102 C.3       1 <0>        -0.1524
      5 C5         -5.8371    3.8028    1.0382 C.3       1 <0>         0.0607
      6 O1         -4.5740    4.4685    1.0965 O.3       1 <0>        -0.3112
      7 C6         -3.4676    3.7120    0.8760 C.ar      1 <0>         0.1320
      8 C7         -2.2086    4.2974    0.9183 C.ar      1 <0>        -0.1385
      9 C8         -1.0836    3.5333    0.6955 C.ar      1 <0>        -0.0705
     10 C9         -1.2106    2.1689    0.4265 C.ar      1 <0>        -0.0432
     11 C10        -2.4784    1.5855    0.3788 C.ar      1 <0>        -0.0337
     12 C11        -3.5981    2.3553    0.6083 C.ar      1 <0>        -0.2026
     13 C12        -0.0069    1.3459    0.1872 C.2       1 <0>         0.2334
     14 N1         -0.0043    0.0089   -0.0841 N.2       1 <0>        -0.4504
     15 H1          1.5059    2.7309    0.3771 H         1 <0>         0.4288
     16 C13         1.3103   -0.3701   -0.2464 C.2       1 <0>         0.0616
     17 C14         2.0720    0.7707   -0.0544 C.2       1 <0>         0.0358
     18 N2          1.2317    1.7853    0.2018 N.pl3     1 <0>        -0.5085
     19 C15         3.5495    0.8569   -0.1258 C.ar      1 <0>        -0.0401
     20 C16         4.3371   -0.1360    0.4562 C.ar      1 <0>        -0.0585
     21 C17         5.7121   -0.0542    0.3826 C.ar      1 <0>        -0.1455
     22 C18         6.3112    1.0179   -0.2592 C.ar      1 <0>         0.1129
     23 C19         5.5331    2.0098   -0.8340 C.ar      1 <0>        -0.1480
     24 C20         4.1571    1.9341   -0.7701 C.ar      1 <0>        -0.0816
     25 F1          7.6584    1.0964   -0.3243 F         1 <0>        -0.1324
     26 C21         1.8082   -1.7237   -0.5536 C.ar      1 <0>         0.0390
     27 C22         2.7545   -1.9309   -1.5670 C.ar      1 <0>        -0.1526
     28 C23         3.1950   -3.2126   -1.8172 C.ar      1 <0>         0.1034
     29 N3          2.7314   -4.2364   -1.1248 N.ar      1 <0>        -0.4812
     30 C24         1.8369   -4.0870   -0.1656 C.ar      1 <0>         0.1015
     31 C25         1.3443   -2.8405    0.1555 C.ar      1 <0>        -0.1481
     32 H2         -9.6683    5.5624   -0.5118 H         1 <0>         0.1246
     33 H3        -10.2703    6.7652    0.6540 H         1 <0>         0.1247
     34 H4         -8.5212    6.6010    0.3679 H         1 <0>         0.1230
     35 H5        -10.6042    3.6965    2.5381 H         1 <0>         0.1227
     36 H6        -11.4509    5.1190    1.8840 H         1 <0>         0.1246
     37 H7        -10.9181    3.8196    0.7904 H         1 <0>         0.1241
     38 H8         -8.4451    3.6607    0.2579 H         1 <0>         0.1355
     39 H9         -8.3394    3.3076    1.9993 H         1 <0>         0.1339
     40 H10        -6.8213    5.2450    2.3001 H         1 <0>         0.0993
     41 H11        -6.9270    5.5981    0.5587 H         1 <0>         0.0994
     42 H12        -5.9728    3.3670    0.0483 H         1 <0>         0.0746
     43 H13        -5.8671    3.0139    1.7897 H         1 <0>         0.0749
     44 H14        -2.1113    5.3527    1.1263 H         1 <0>         0.1395
     45 H15        -0.1051    3.9891    0.7286 H         1 <0>         0.1294
     46 H16        -2.5810    0.5316    0.1663 H         1 <0>         0.1444
     47 H17        -4.5787    1.9039    0.5763 H         1 <0>         0.1330
     48 H18         3.8711   -0.9697    0.9605 H         1 <0>         0.1349
     49 H19         6.3228   -0.8246    0.8297 H         1 <0>         0.1437
     50 H20         6.0045    2.8439   -1.3326 H         1 <0>         0.1423
     51 H21         3.5514    2.7079   -1.2182 H         1 <0>         0.1309
     52 H22         3.1351   -1.0985   -2.1403 H         1 <0>         0.1338
     53 H23         3.9266   -3.3822   -2.5933 H         1 <0>         0.1589
     54 H24         1.4859   -4.9537    0.3748 H         1 <0>         0.1591
     55 H25         0.6126   -2.7259    0.9415 H         1 <0>         0.1369
     56 N4         -9.3784    5.0765    1.5334 N.4       1 <0>        -0.3970
     57 H26        -9.1551    5.5687    2.4064 H         1 <0>         0.4328
@<TRIPOS>BOND
     1    1   32 1
     2    1   33 1
     3    1   34 1
     4    1   56 1
     5    2   35 1
     6    2   36 1
     7    2   37 1
     8    2   56 1
     9    3    4 1
    10    3   38 1
    11    3   39 1
    12    3   56 1
    13    4    5 1
    14    4   40 1
    15    4   41 1
    16    5    6 1
    17    5   42 1
    18    5   43 1
    19    6    7 1
    20    7   12 ar
    21    7    8 ar
    22    8    9 ar
    23    8   44 1
    24    9   10 ar
    25    9   45 1
    26   10   11 ar
    27   10   13 1
    28   11   12 ar
    29   11   46 1
    30   12   47 1
    31   13   14 2
    32   13   18 1
    33   14   16 1
    34   15   18 1
    35   16   17 2
    36   16   26 1
    37   17   18 1
    38   17   19 1
    39   19   24 ar
    40   19   20 ar
    41   20   21 ar
    42   20   48 1
    43   21   22 ar
    44   21   49 1
    45   22   23 ar
    46   22   25 1
    47   23   24 ar
    48   23   50 1
    49   24   51 1
    50   26   31 ar
    51   26   27 ar
    52   27   28 ar
    53   27   52 1
    54   28   29 ar
    55   28   53 1
    56   29   30 ar
    57   30   31 ar
    58   30   54 1
    59   31   55 1
    60   56   57 1
@<TRIPOS>MOLECULE
ZINC03815762
   57    61     0     0     0
SMALL
USER_CHARGES

@<TRIPOS>ATOM
      1 C1          8.5812   -2.6664   -3.9152 C.ar      1 <0>        -0.0825
      2 C2          8.5754   -1.3079   -3.6593 C.ar      1 <0>        -0.1136
      3 C3          8.1972   -0.8408   -2.4144 C.ar      1 <0>        -0.0974
      4 C4          7.8254   -1.7321   -1.4253 C.ar      1 <0>        -0.1643
      5 C5          7.8368   -3.0908   -1.6795 C.ar      1 <0>        -0.0934
      6 C6          8.2099   -3.5577   -2.9260 C.ar      1 <0>        -0.1126
      7 C7          7.4136   -1.2228   -0.0681 C.3       1 <0>         0.0492
      8 C8          5.5613   -0.2670    1.1631 C.3       1 <0>         0.0037
      9 C9          4.0353   -0.1630    1.2135 C.3       1 <0>        -0.1607
     10 C10         3.5382    0.5830   -0.0279 C.3       1 <0>         0.1224
     11 C11         4.0125   -0.1564   -1.2820 C.3       1 <0>        -0.1568
     12 C12         5.5392   -0.2606   -1.2601 C.3       1 <0>        -0.0026
     13 N1          2.0741    0.6347   -0.0143 N.pl3     1 <0>        -0.4513
     14 C13         1.2366   -0.4240   -0.0120 C.2       1 <0>         0.1996
     15 N2          0.0021   -0.0041    0.0020 N.2       1 <0>        -0.4636
     16 C14        -0.0162    1.3413    0.0094 C.2       1 <0>         0.0915
     17 C15         1.2985    1.7721   -0.0008 C.2       1 <0>         0.0182
     18 C16         1.7736    3.1691    0.0021 C.ar      1 <0>         0.0259
     19 C17         2.8148    3.5741    0.8481 C.ar      1 <0>        -0.1788
     20 C18         3.2302    4.8880    0.8141 C.ar      1 <0>         0.1087
     21 N3          2.6547    5.7605    0.0079 N.ar      1 <0>        -0.4754
     22 C19         1.6679    5.4228   -0.8011 C.ar      1 <0>         0.1150
     23 C20         1.1925    4.1295   -0.8368 C.ar      1 <0>        -0.1440
     24 C21        -1.2216    2.2025    0.0200 C.ar      1 <0>        -0.0338
     25 C22        -1.2147    3.4071    0.7229 C.ar      1 <0>        -0.0712
     26 C23        -2.3381    4.2078    0.7259 C.ar      1 <0>        -0.1523
     27 C24        -3.4755    3.8120    0.0407 C.ar      1 <0>         0.1130
     28 C25        -3.4891    2.6136   -0.6548 C.ar      1 <0>        -0.1526
     29 C26        -2.3690    1.8085   -0.6681 C.ar      1 <0>        -0.0571
     30 F1         -4.5751    4.5968    0.0511 F         1 <0>        -0.1333
     31 H1          8.8763   -3.0313   -4.8879 H         1 <0>         0.1366
     32 H2          8.8658   -0.6116   -4.4320 H         1 <0>         0.1367
     33 H3          8.1927    0.2206   -2.2144 H         1 <0>         0.1306
     34 H4          7.5505   -3.7874   -0.9054 H         1 <0>         0.1315
     35 H5          8.2148   -4.6190   -3.1259 H         1 <0>         0.1368
     36 H6          7.9384   -0.2915    0.1451 H         1 <0>         0.1384
     37 H7          7.6664   -1.9640    0.6901 H         1 <0>         0.1374
     38 H8          5.9935    0.7336    1.1561 H         1 <0>         0.1362
     39 H9          5.9174   -0.8103    2.0383 H         1 <0>         0.1409
     40 H10         3.7371    0.3819    2.1092 H         1 <0>         0.1227
     41 H11         3.6023   -1.1631    1.2348 H         1 <0>         0.1011
     42 H12         3.9385    1.5968   -0.0283 H         1 <0>         0.1196
     43 H13         3.5797   -1.1566   -1.3004 H         1 <0>         0.0991
     44 H14         3.6980    0.3932   -2.1692 H         1 <0>         0.1207
     45 H15         5.9714    0.7400   -1.2557 H         1 <0>         0.1340
     46 H16         5.8792   -0.7991   -2.1447 H         1 <0>         0.1419
     47 H17         1.5421   -1.4599   -0.0211 H         1 <0>         0.2093
     48 H18         3.2870    2.8669    1.5139 H         1 <0>         0.1282
     49 H19         4.0346    5.2091    1.4593 H         1 <0>         0.1600
     50 H20         1.2267    6.1702   -1.4438 H         1 <0>         0.1652
     51 H21         0.3848    3.8603   -1.5013 H         1 <0>         0.1419
     52 H22        -0.3301    3.7143    1.2610 H         1 <0>         0.1275
     53 H23        -2.3323    5.1427    1.2665 H         1 <0>         0.1403
     54 H24        -4.3781    2.3091   -1.1871 H         1 <0>         0.1423
     55 H25        -2.3806    0.8744   -1.2101 H         1 <0>         0.1385
     56 N4          5.9517   -1.0097   -0.0543 N.4       1 <0>        -0.3952
     57 H26         5.4817   -1.9226   -0.0524 H         1 <0>         0.4278
@<TRIPOS>BOND
     1    1    6 ar
     2    1    2 ar
     3    1   31 1
     4    2    3 ar
     5    2   32 1
     6    3    4 ar
     7    3   33 1
     8    4    5 ar
     9    4    7 1
    10    5    6 ar
    11    5   34 1
    12    6   35 1
    13    7   36 1
    14    7   37 1
    15    7   56 1
    16    8    9 1
    17    8   38 1
    18    8   39 1
    19    8   56 1
    20    9   10 1
    21    9   40 1
    22    9   41 1
    23   10   11 1
    24   10   13 1
    25   10   42 1
    26   11   12 1
    27   11   43 1
    28   11   44 1
    29   12   45 1
    30   12   46 1
    31   12   56 1
    32   13   17 1
    33   13   14 1
    34   14   15 2
    35   14   47 1
    36   15   16 1
    37   16   17 2
    38   16   24 1
    39   17   18 1
    40   18   23 ar
    41   18   19 ar
    42   19   20 ar
    43   19   48 1
    44   20   21 ar
    45   20   49 1
    46   21   22 ar
    47   22   23 ar
    48   22   50 1
    49   23   51 1
    50   24   29 ar
    51   24   25 ar
    52   25   26 ar
    53   25   52 1
    54   26   27 ar
    55   26   53 1
    56   27   28 ar
    57   27   30 1
    58   28   29 ar
    59   28   54 1
    60   29   55 1
    61   56   57 1
@<TRIPOS>MOLECULE
ZINC03815762
   58    62     0     0     0
SMALL
USER_CHARGES

@<TRIPOS>ATOM
      1 C1          8.5812   -2.6664   -3.9152 C.ar      1 <0>        -0.0779
      2 C2          8.5754   -1.3079   -3.6593 C.ar      1 <0>        -0.1123
      3 C3          8.1972   -0.8408   -2.4144 C.ar      1 <0>        -0.0987
      4 C4          7.8254   -1.7321   -1.4253 C.ar      1 <0>        -0.1712
      5 C5          7.8368   -3.0908   -1.6795 C.ar      1 <0>        -0.0928
      6 C6          8.2099   -3.5577   -2.9260 C.ar      1 <0>        -0.1114
      7 C7          7.4136   -1.2228   -0.0681 C.3       1 <0>         0.0497
      8 C8          5.5613   -0.2670    1.1631 C.3       1 <0>         0.0023
      9 C9          4.0353   -0.1630    1.2135 C.3       1 <0>        -0.1651
     10 C10         3.5382    0.5830   -0.0279 C.3       1 <0>         0.1108
     11 C11         4.0125   -0.1564   -1.2820 C.3       1 <0>        -0.1608
     12 C12         5.5392   -0.2606   -1.2601 C.3       1 <0>        -0.0049
     13 N1          2.0741    0.6347   -0.0143 N.pl3     1 <0>        -0.4037
     14 C13         1.2366   -0.4240   -0.0120 C.cat     1 <0>         0.2887
     15 C14        -0.0162    1.3413    0.0094 C.2       1 <0>         0.1281
     16 C15         1.2985    1.7721   -0.0008 C.2       1 <0>         0.1045
     17 C16         1.7736    3.1691    0.0021 C.ar      1 <0>        -0.0206
     18 C17         2.8148    3.5741    0.8481 C.ar      1 <0>        -0.1627
     19 C18         3.2302    4.8880    0.8141 C.ar      1 <0>         0.1196
     20 N2          2.6547    5.7605    0.0079 N.ar      1 <0>        -0.4530
     21 C19         1.6679    5.4228   -0.8011 C.ar      1 <0>         0.1255
     22 C20         1.1925    4.1295   -0.8368 C.ar      1 <0>        -0.1305
     23 C21        -1.2216    2.2025    0.0200 C.ar      1 <0>        -0.0978
     24 C22        -1.2147    3.4071    0.7229 C.ar      1 <0>        -0.0444
     25 C23        -2.3381    4.2078    0.7259 C.ar      1 <0>        -0.1468
     26 C24        -3.4755    3.8120    0.0407 C.ar      1 <0>         0.1522
     27 C25        -3.4891    2.6136   -0.6548 C.ar      1 <0>        -0.1464
     28 C26        -2.3690    1.8085   -0.6681 C.ar      1 <0>        -0.0587
     29 F1         -4.5751    4.5968    0.0511 F         1 <0>        -0.1156
     30 H1          8.8763   -3.0313   -4.8879 H         1 <0>         0.1391
     31 H2          8.8658   -0.6116   -4.4320 H         1 <0>         0.1386
     32 H3          8.1927    0.2206   -2.2144 H         1 <0>         0.1307
     33 H4          7.5505   -3.7874   -0.9054 H         1 <0>         0.1318
     34 H5          8.2148   -4.6190   -3.1259 H         1 <0>         0.1388
     35 H6          7.9384   -0.2915    0.1451 H         1 <0>         0.1417
     36 H7          7.6664   -1.9640    0.6901 H         1 <0>         0.1412
     37 H8          5.9935    0.7336    1.1561 H         1 <0>         0.1428
     38 H9          5.9174   -0.8103    2.0383 H         1 <0>         0.1507
     39 H10         3.7371    0.3819    2.1092 H         1 <0>         0.1314
     40 H11         3.6023   -1.1631    1.2348 H         1 <0>         0.1066
     41 H12         3.9385    1.5968   -0.0283 H         1 <0>         0.1456
     42 H13         3.5797   -1.1566   -1.3004 H         1 <0>         0.1044
     43 H14         3.6980    0.3932   -2.1692 H         1 <0>         0.1296
     44 H15         5.9714    0.7400   -1.2557 H         1 <0>         0.1408
     45 H16         5.8792   -0.7991   -2.1447 H         1 <0>         0.1518
     46 H17         1.5421   -1.4599   -0.0211 H         1 <0>         0.2617
     47 H18         3.2870    2.8669    1.5139 H         1 <0>         0.1361
     48 H19         4.0346    5.2091    1.4593 H         1 <0>         0.1715
     49 H20         1.2267    6.1702   -1.4438 H         1 <0>         0.1757
     50 H21         0.3848    3.8603   -1.5013 H         1 <0>         0.1485
     51 H22        -0.3301    3.7143    1.2610 H         1 <0>         0.1383
     52 H23        -2.3323    5.1427    1.2665 H         1 <0>         0.1550
     53 H24        -4.3781    2.3091   -1.1871 H         1 <0>         0.1557
     54 H25        -2.3806    0.8744   -1.2101 H         1 <0>         0.1380
     55 N3          5.9517   -1.0097   -0.0543 N.4       1 <0>        -0.3973
     56 H26         5.4817   -1.9226   -0.0524 H         1 <0>         0.4282
     57 N4          0.0016   -0.0045    0.0020 N.pl3     1 <0>        -0.4697
     58 H27        -0.8290   -0.6080    0.0067 H         1 <0>         0.4865
@<TRIPOS>BOND
     1    1    6 ar
     2    1    2 ar
     3    1   30 1
     4    2    3 ar
     5    2   31 1
     6    3    4 ar
     7    3   32 1
     8    4    5 ar
     9    4    7 1
    10    5    6 ar
    11    5   33 1
    12    6   34 1
    13    7   35 1
    14    7   36 1
    15    7   55 1
    16    8    9 1
    17    8   37 1
    18    8   38 1
    19    8   55 1
    20    9   10 1
    21    9   39 1
    22    9   40 1
    23   10   11 1
    24   10   13 1
    25   10   41 1
    26   11   12 1
    27   11   42 1
    28   11   43 1
    29   12   44 1
    30   12   45 1
    31   12   55 1
    32   13   16 1
    33   13   14 1
    34   14   46 1
    35   14   57 2
    36   15   16 2
    37   15   23 1
    38   15   57 1
    39   16   17 1
    40   17   22 ar
    41   17   18 ar
    42   18   19 ar
    43   18   47 1
    44   19   20 ar
    45   19   48 1
    46   20   21 ar
    47   21   22 ar
    48   21   49 1
    49   22   50 1
    50   23   28 ar
    51   23   24 ar
    52   24   25 ar
    53   24   51 1
    54   25   26 ar
    55   25   52 1
    56   26   27 ar
    57   26   29 1
    58   27   28 ar
    59   27   53 1
    60   28   54 1
    61   55   56 1
    62   57   58 1
@<TRIPOS>MOLECULE
ZINC03815763
   40    42     0     0     0
SMALL
USER_CHARGES

@<TRIPOS>ATOM
      1 C1          0.5927   -3.8499   -2.1154 C.3       1 <0>        -0.1391
      2 C2          1.3776   -3.2132   -0.9667 C.3       1 <0>         0.0166
      3 C3          2.7369   -2.7352   -1.4811 C.3       1 <0>        -0.1577
      4 C4          1.5866   -4.2463    0.1424 C.3       1 <0>        -0.1346
      5 C5          0.6060   -2.0395   -0.4209 C.2       1 <0>         0.2176
      6 N1         -0.4901   -2.1247    0.3625 N.2       1 <0>        -0.4612
      7 H1          1.6583   -0.4553   -1.1877 H         1 <0>         0.4266
      8 C6         -0.8937   -0.8393    0.6455 C.2       1 <0>         0.0567
      9 C7          0.0074   -0.0041    0.0095 C.2       1 <0>         0.0140
     10 N2          0.8947   -0.7855   -0.6329 N.pl3     1 <0>        -0.5122
     11 C8         -0.0088    1.4773    0.0230 C.ar      1 <0>        -0.0286
     12 C9         -1.2230    2.1635    0.0352 C.ar      1 <0>        -0.0641
     13 C10        -1.2329    3.5429    0.0526 C.ar      1 <0>        -0.1446
     14 C11        -0.0393    4.2466    0.0472 C.ar      1 <0>         0.1059
     15 C12         1.1694    3.5695    0.0297 C.ar      1 <0>        -0.1468
     16 C13         1.1898    2.1902    0.0176 C.ar      1 <0>        -0.0866
     17 F1         -0.0542    5.5975    0.0585 F         1 <0>        -0.1351
     18 C14        -2.0492   -0.4340    1.4688 C.ar      1 <0>         0.0435
     19 C15        -1.9297    0.5803    2.4284 C.ar      1 <0>        -0.1559
     20 C16        -3.0363    0.9296    3.1722 C.ar      1 <0>         0.1007
     21 N3         -4.1923    0.3169    2.9969 N.ar      1 <0>        -0.4840
     22 C17        -4.3475   -0.6463    2.1079 C.ar      1 <0>         0.1005
     23 C18        -3.2955   -1.0565    1.3172 C.ar      1 <0>        -0.1476
     24 H2          0.4438   -3.1140   -2.9055 H         1 <0>         0.0546
     25 H3          1.1508   -4.6989   -2.5101 H         1 <0>         0.0689
     26 H4         -0.3757   -4.1905   -1.7488 H         1 <0>         0.0682
     27 H5          3.2961   -2.2816   -0.6628 H         1 <0>         0.0618
     28 H6          3.2950   -3.5842   -1.8759 H         1 <0>         0.0789
     29 H7          2.5880   -1.9993   -2.2713 H         1 <0>         0.0561
     30 H8          0.6183   -4.5869    0.5089 H         1 <0>         0.0719
     31 H9          2.1448   -5.0953   -0.2524 H         1 <0>         0.0653
     32 H10         2.1458   -3.7927    0.9607 H         1 <0>         0.0560
     33 H11        -2.1538    1.6159    0.0353 H         1 <0>         0.1351
     34 H12        -2.1726    4.0751    0.0662 H         1 <0>         0.1420
     35 H13         2.0972    4.1224    0.0252 H         1 <0>         0.1407
     36 H14         2.1324    1.6633    0.0037 H         1 <0>         0.1295
     37 H15        -0.9859    1.0829    2.5804 H         1 <0>         0.1333
     38 H16        -2.9554    1.7124    3.9119 H         1 <0>         0.1575
     39 H17        -5.3120   -1.1198    1.9987 H         1 <0>         0.1584
     40 H18        -3.4299   -1.8452    0.5918 H         1 <0>         0.1378
@<TRIPOS>BOND
     1    1    2 1
     2    1   24 1
     3    1   25 1
     4    1   26 1
     5    2    3 1
     6    2    4 1
     7    2    5 1
     8    3   27 1
     9    3   28 1
    10    3   29 1
    11    4   30 1
    12    4   31 1
    13    4   32 1
    14    5    6 2
    15    5   10 1
    16    6    8 1
    17    7   10 1
    18    8    9 2
    19    8   18 1
    20    9   10 1
    21    9   11 1
    22   11   16 ar
    23   11   12 ar
    24   12   13 ar
    25   12   33 1
    26   13   14 ar
    27   13   34 1
    28   14   15 ar
    29   14   17 1
    30   15   16 ar
    31   15   35 1
    32   16   36 1
    33   18   23 ar
    34   18   19 ar
    35   19   20 ar
    36   19   37 1
    37   20   21 ar
    38   20   38 1
    39   21   22 ar
    40   22   23 ar
    41   22   39 1
    42   23   40 1
@<TRIPOS>MOLECULE
ZINC03815763
   40    42     0     0     0
SMALL
USER_CHARGES

@<TRIPOS>ATOM
      1 C1          0.5927   -3.8499   -2.1154 C.3       1 <0>        -0.1391
      2 C2          1.3776   -3.2132   -0.9667 C.3       1 <0>         0.0166
      3 C3          2.7369   -2.7352   -1.4811 C.3       1 <0>        -0.1577
      4 C4          1.5866   -4.2463    0.1424 C.3       1 <0>        -0.1346
      5 C5          0.6060   -2.0395   -0.4209 C.2       1 <0>         0.2176
      6 N1         -0.4901   -2.1247    0.3625 N.2       1 <0>        -0.4612
      7 H1          1.6583   -0.4553   -1.1877 H         1 <0>         0.4266
      8 C6         -0.8937   -0.8393    0.6455 C.2       1 <0>         0.0567
      9 C7          0.0074   -0.0041    0.0095 C.2       1 <0>         0.0140
     10 N2          0.8947   -0.7855   -0.6329 N.pl3     1 <0>        -0.5122
     11 C8         -0.0088    1.4773    0.0230 C.ar      1 <0>        -0.0286
     12 C9         -1.2230    2.1635    0.0352 C.ar      1 <0>        -0.0641
     13 C10        -1.2329    3.5429    0.0526 C.ar      1 <0>        -0.1446
     14 C11        -0.0393    4.2466    0.0472 C.ar      1 <0>         0.1059
     15 C12         1.1694    3.5695    0.0297 C.ar      1 <0>        -0.1468
     16 C13         1.1898    2.1902    0.0176 C.ar      1 <0>        -0.0866
     17 F1         -0.0542    5.5975    0.0585 F         1 <0>        -0.1351
     18 C14        -2.0492   -0.4340    1.4688 C.ar      1 <0>         0.0435
     19 C15        -1.9297    0.5803    2.4284 C.ar      1 <0>        -0.1559
     20 C16        -3.0363    0.9296    3.1722 C.ar      1 <0>         0.1007
     21 N3         -4.1923    0.3169    2.9969 N.ar      1 <0>        -0.4840
     22 C17        -4.3475   -0.6463    2.1079 C.ar      1 <0>         0.1005
     23 C18        -3.2955   -1.0565    1.3172 C.ar      1 <0>        -0.1476
     24 H2          0.4438   -3.1140   -2.9055 H         1 <0>         0.0546
     25 H3          1.1508   -4.6989   -2.5101 H         1 <0>         0.0689
     26 H4         -0.3757   -4.1905   -1.7488 H         1 <0>         0.0682
     27 H5          3.2961   -2.2816   -0.6628 H         1 <0>         0.0618
     28 H6          3.2950   -3.5842   -1.8759 H         1 <0>         0.0789
     29 H7          2.5880   -1.9993   -2.2713 H         1 <0>         0.0561
     30 H8          0.6183   -4.5869    0.5089 H         1 <0>         0.0719
     31 H9          2.1448   -5.0953   -0.2524 H         1 <0>         0.0653
     32 H10         2.1458   -3.7927    0.9607 H         1 <0>         0.0560
     33 H11        -2.1538    1.6159    0.0353 H         1 <0>         0.1351
     34 H12        -2.1726    4.0751    0.0662 H         1 <0>         0.1420
     35 H13         2.0972    4.1224    0.0252 H         1 <0>         0.1407
     36 H14         2.1324    1.6633    0.0037 H         1 <0>         0.1295
     37 H15        -0.9859    1.0829    2.5804 H         1 <0>         0.1333
     38 H16        -2.9554    1.7124    3.9119 H         1 <0>         0.1575
     39 H17        -5.3120   -1.1198    1.9987 H         1 <0>         0.1584
     40 H18        -3.4299   -1.8452    0.5918 H         1 <0>         0.1378
@<TRIPOS>BOND
     1    1    2 1
     2    1   24 1
     3    1   25 1
     4    1   26 1
     5    2    3 1
     6    2    4 1
     7    2    5 1
     8    3   27 1
     9    3   28 1
    10    3   29 1
    11    4   30 1
    12    4   31 1
    13    4   32 1
    14    5    6 2
    15    5   10 1
    16    6    8 1
    17    7   10 1
    18    8    9 2
    19    8   18 1
    20    9   10 1
    21    9   11 1
    22   11   16 ar
    23   11   12 ar
    24   12   13 ar
    25   12   33 1
    26   13   14 ar
    27   13   34 1
    28   14   15 ar
    29   14   17 1
    30   15   16 ar
    31   15   35 1
    32   16   36 1
    33   18   23 ar
    34   18   19 ar
    35   19   20 ar
    36   19   37 1
    37   20   21 ar
    38   20   38 1
    39   21   22 ar
    40   22   23 ar
    41   22   39 1
    42   23   40 1
@<TRIPOS>MOLECULE
ZINC03815763
   41    43     0     0     0
SMALL
USER_CHARGES

@<TRIPOS>ATOM
      1 C1          0.5927   -3.8499   -2.1154 C.3       1 <0>        -0.1538
      2 C2          1.3776   -3.2132   -0.9667 C.3       1 <0>        -0.0116
      3 C3          2.7369   -2.7352   -1.4811 C.3       1 <0>        -0.1667
      4 C4          1.5866   -4.2463    0.1424 C.3       1 <0>        -0.1568
      5 C5          0.6060   -2.0395   -0.4209 C.cat     1 <0>         0.3454
      6 N1         -0.4901   -2.1247    0.3625 N.pl3     1 <0>        -0.5022
      7 H1         -0.9280   -2.9662    0.6789 H         1 <0>         0.4716
      8 C6         -0.8937   -0.8393    0.6455 C.2       1 <0>         0.1090
      9 C7          0.0021   -0.0041    0.0020 C.2       1 <0>         0.1093
     10 C8         -0.0180    1.4773    0.0102 C.ar      1 <0>        -0.0826
     11 C9         -1.2339    2.1604    0.0196 C.ar      1 <0>        -0.0465
     12 C10        -1.2474    3.5398    0.0320 C.ar      1 <0>        -0.1458
     13 C11        -0.0556    4.2466    0.0244 C.ar      1 <0>         0.1425
     14 C12         1.1549    3.5725    0.0097 C.ar      1 <0>        -0.1465
     15 C13         1.1788    2.1932    0.0026 C.ar      1 <0>        -0.0632
     16 F1         -0.0739    5.5975    0.0309 F         1 <0>        -0.1205
     17 C14        -2.0492   -0.4340    1.4688 C.ar      1 <0>        -0.0193
     18 C15        -1.9297    0.5803    2.4284 C.ar      1 <0>        -0.1328
     19 C16        -3.0363    0.9296    3.1722 C.ar      1 <0>         0.1170
     20 N2         -4.1923    0.3169    2.9969 N.ar      1 <0>        -0.4579
     21 C17        -4.3475   -0.6463    2.1079 C.ar      1 <0>         0.1172
     22 C18        -3.2955   -1.0565    1.3172 C.ar      1 <0>        -0.1492
     23 H2          0.4438   -3.1140   -2.9055 H         1 <0>         0.0725
     24 H3          1.1508   -4.6989   -2.5101 H         1 <0>         0.0970
     25 H4         -0.3757   -4.1905   -1.7488 H         1 <0>         0.0696
     26 H5          3.2961   -2.2816   -0.6628 H         1 <0>         0.0754
     27 H6          3.2950   -3.5842   -1.8759 H         1 <0>         0.1027
     28 H7          2.5880   -1.9993   -2.2713 H         1 <0>         0.0697
     29 H8          0.6183   -4.5869    0.5089 H         1 <0>         0.0665
     30 H9          2.1448   -5.0953   -0.2524 H         1 <0>         0.0985
     31 H10         2.1458   -3.7927    0.9607 H         1 <0>         0.0746
     32 H11        -2.1633    1.6104    0.0214 H         1 <0>         0.1399
     33 H12        -2.1884    4.0697    0.0435 H         1 <0>         0.1529
     34 H13         2.0812    4.1278    0.0035 H         1 <0>         0.1528
     35 H14         2.1228    1.6687   -0.0092 H         1 <0>         0.1371
     36 H15        -0.9859    1.0829    2.5804 H         1 <0>         0.1461
     37 H16        -2.9554    1.7124    3.9119 H         1 <0>         0.1721
     38 H17        -5.3120   -1.1198    1.9987 H         1 <0>         0.1714
     39 H18        -3.4299   -1.8452    0.5918 H         1 <0>         0.1417
     40 N3          0.8920   -0.7853   -0.6376 N.pl3     1 <0>        -0.4757
     41 H19         1.6753   -0.4463   -1.2083 H         1 <0>         0.4783
@<TRIPOS>BOND
     1    1    2 1
     2    1   23 1
     3    1   24 1
     4    1   25 1
     5    2    3 1
     6    2    4 1
     7    2    5 1
     8    3   26 1
     9    3   27 1
    10    3   28 1
    11    4   29 1
    12    4   30 1
    13    4   31 1
    14    5    6 1
    15    5   40 2
    16    6    7 1
    17    6    8 1
    18    8    9 2
    19    8   17 1
    20    9   10 1
    21    9   40 1
    22   10   15 ar
    23   10   11 ar
    24   11   12 ar
    25   11   32 1
    26   12   13 ar
    27   12   33 1
    28   13   14 ar
    29   13   16 1
    30   14   15 ar
    31   14   34 1
    32   15   35 1
    33   17   22 ar
    34   17   18 ar
    35   18   19 ar
    36   18   36 1
    37   19   20 ar
    38   19   37 1
    39   20   21 ar
    40   21   22 ar
    41   21   38 1
    42   22   39 1
    43   40   41 1
@<TRIPOS>MOLECULE
ZINC03815764
   54    57     0     0     0
SMALL
USER_CHARGES

@<TRIPOS>ATOM
      1 C1          2.5836    1.3468    0.2436 C.ar      1 <0>        -0.1160
      2 C2          2.5506   -0.0288    0.1383 C.ar      1 <0>        -0.0717
      3 C3          1.3279   -0.6985    0.1692 C.ar      1 <0>        -0.0175
      4 C4          0.1449    0.0275    0.3065 C.ar      1 <0>        -0.0397
      5 C5          0.1907    1.4024    0.4109 C.ar      1 <0>        -0.1781
      6 C6          1.4070    2.0613    0.3796 C.ar      1 <0>        -0.0603
      7 C7         -1.0871    2.1887    0.5531 C.3       1 <0>         0.5082
      8 F1         -1.3994    2.3296    1.9095 F         1 <0>        -0.1732
      9 F2         -0.9226    3.4536   -0.0214 F         1 <0>        -0.1740
     10 F3         -2.1253    1.5128   -0.0968 F         1 <0>        -0.1751
     11 C8          1.2857   -2.1751    0.0571 C.2       1 <0>         0.0852
     12 C9          2.1295   -2.9635   -0.7047 C.2       1 <0>         0.0122
     13 N1          1.7240   -4.2634   -0.5043 N.pl3     1 <0>        -0.4545
     14 C10         0.6770   -4.2321    0.3475 C.2       1 <0>         0.2074
     15 N2          0.4232   -2.9975    0.6820 N.2       1 <0>        -0.4669
     16 C11         2.3190   -5.4602   -1.1041 C.3       1 <0>         0.1108
     17 C12         3.4055   -6.0089   -0.1772 C.3       1 <0>        -0.1749
     18 C13         4.1071   -7.1873   -0.8554 C.3       1 <0>        -0.0013
     19 C14         6.2293   -6.7331    0.2203 C.3       1 <0>        -0.0449
     20 C15         7.2625   -7.2978    1.1989 C.3       1 <0>         0.0353
     21 O1          7.7474   -8.5486    0.7030 O.3       1 <0>        -0.3547
     22 C16         6.7230   -9.5279    0.5110 C.3       1 <0>         0.0339
     23 C17         5.6844   -8.9857   -0.4745 C.3       1 <0>        -0.0383
     24 C18         3.2409   -2.5035   -1.5596 C.ar      1 <0>         0.0294
     25 C19         3.0223   -1.5791   -2.5899 C.ar      1 <0>        -0.1423
     26 C20         4.0906   -1.1731   -3.3607 C.ar      1 <0>         0.1178
     27 N3          5.3022   -1.6505   -3.1456 N.ar      1 <0>        -0.4740
     28 C21         5.5513   -2.5260   -2.1897 C.ar      1 <0>         0.1056
     29 C22         4.5435   -2.9831   -1.3678 C.ar      1 <0>        -0.1780
     30 H1          3.5300    1.8666    0.2198 H         1 <0>         0.1400
     31 H2          3.4700   -0.5856    0.0325 H         1 <0>         0.1255
     32 H3         -0.8051   -0.4857    0.3308 H         1 <0>         0.1422
     33 H4          1.4378    3.1377    0.4612 H         1 <0>         0.1416
     34 H5          0.1352   -5.0970    0.7006 H         1 <0>         0.2150
     35 H6          1.5475   -6.2167   -1.2474 H         1 <0>         0.1121
     36 H7          2.7591   -5.2032   -2.0676 H         1 <0>         0.1031
     37 H8          4.1331   -5.2252    0.0336 H         1 <0>         0.0953
     38 H9          2.9520   -6.3441    0.7557 H         1 <0>         0.1006
     39 H10         3.3795   -7.9711   -1.0661 H         1 <0>         0.1386
     40 H11         4.5606   -6.8522   -1.7882 H         1 <0>         0.1373
     41 H12         6.7077   -6.5323   -0.7383 H         1 <0>         0.1432
     42 H13         5.8152   -5.8082    0.6219 H         1 <0>         0.1379
     43 H14         6.7970   -7.4483    2.1729 H         1 <0>         0.0816
     44 H15         8.0928   -6.5984    1.2964 H         1 <0>         0.1432
     45 H16         6.2419   -9.7432    1.4651 H         1 <0>         0.0818
     46 H17         7.1631  -10.4411    0.1103 H         1 <0>         0.1435
     47 H18         4.8725   -9.7053   -0.5801 H         1 <0>         0.1428
     48 H19         6.1541   -8.8210   -1.4442 H         1 <0>         0.1419
     49 H20         2.0328   -1.1878   -2.7746 H         1 <0>         0.1421
     50 H21         3.9331   -0.4583   -4.1547 H         1 <0>         0.1664
     51 H22         6.5586   -2.8896   -2.0499 H         1 <0>         0.1577
     52 H23         4.7547   -3.6995   -0.5877 H         1 <0>         0.1236
     53 N4          5.1404   -7.7191    0.0594 N.4       1 <0>        -0.3956
     54 H24         4.7141   -7.8986    0.9761 H         1 <0>         0.4280
@<TRIPOS>BOND
     1    1    6 ar
     2    1    2 ar
     3    1   30 1
     4    2    3 ar
     5    2   31 1
     6    3    4 ar
     7    3   11 1
     8    4    5 ar
     9    4   32 1
    10    5    6 ar
    11    5    7 1
    12    6   33 1
    13    7    8 1
    14    7    9 1
    15    7   10 1
    16   11   15 1
    17   11   12 2
    18   12   13 1
    19   12   24 1
    20   13   14 1
    21   13   16 1
    22   14   15 2
    23   14   34 1
    24   16   17 1
    25   16   35 1
    26   16   36 1
    27   17   18 1
    28   17   37 1
    29   17   38 1
    30   18   39 1
    31   18   40 1
    32   18   53 1
    33   19   20 1
    34   19   41 1
    35   19   42 1
    36   19   53 1
    37   20   21 1
    38   20   43 1
    39   20   44 1
    40   21   22 1
    41   22   23 1
    42   22   45 1
    43   22   46 1
    44   23   47 1
    45   23   48 1
    46   23   53 1
    47   24   29 ar
    48   24   25 ar
    49   25   26 ar
    50   25   49 1
    51   26   27 ar
    52   26   50 1
    53   27   28 ar
    54   28   29 ar
    55   28   51 1
    56   29   52 1
    57   53   54 1
@<TRIPOS>MOLECULE
ZINC03815764
   55    58     0     0     0
SMALL
USER_CHARGES

@<TRIPOS>ATOM
      1 C1          2.5836    1.3468    0.2436 C.ar      1 <0>        -0.1050
      2 C2          2.5506   -0.0288    0.1383 C.ar      1 <0>        -0.0476
      3 C3          1.3279   -0.6985    0.1692 C.ar      1 <0>        -0.0774
      4 C4          0.1449    0.0275    0.3065 C.ar      1 <0>        -0.0451
      5 C5          0.1907    1.4024    0.4109 C.ar      1 <0>        -0.1674
      6 C6          1.4070    2.0613    0.3796 C.ar      1 <0>        -0.0289
      7 C7         -1.0871    2.1887    0.5531 C.3       1 <0>         0.5068
      8 F1         -1.3994    2.3296    1.9095 F         1 <0>        -0.1679
      9 F2         -0.9226    3.4536   -0.0214 F         1 <0>        -0.1652
     10 F3         -2.1253    1.5128   -0.0968 F         1 <0>        -0.1736
     11 C8          1.2857   -2.1751    0.0571 C.2       1 <0>         0.1214
     12 C9          2.1295   -2.9635   -0.7047 C.2       1 <0>         0.0998
     13 N1          1.7240   -4.2634   -0.5043 N.pl3     1 <0>        -0.4081
     14 C10         0.6770   -4.2321    0.3475 C.cat     1 <0>         0.3045
     15 C11         2.3190   -5.4602   -1.1041 C.3       1 <0>         0.0985
     16 C12         3.4055   -6.0089   -0.1772 C.3       1 <0>        -0.1811
     17 C13         4.1071   -7.1873   -0.8554 C.3       1 <0>        -0.0019
     18 C14         6.2293   -6.7331    0.2203 C.3       1 <0>        -0.0454
     19 C15         7.2625   -7.2978    1.1989 C.3       1 <0>         0.0341
     20 O1          7.7474   -8.5486    0.7030 O.3       1 <0>        -0.3508
     21 C16         6.7230   -9.5279    0.5110 C.3       1 <0>         0.0328
     22 C17         5.6844   -8.9857   -0.4745 C.3       1 <0>        -0.0386
     23 C18         3.2409   -2.5035   -1.5596 C.ar      1 <0>        -0.0190
     24 C19         3.0223   -1.5791   -2.5899 C.ar      1 <0>        -0.1278
     25 C20         4.0906   -1.1731   -3.3607 C.ar      1 <0>         0.1285
     26 N2          5.3022   -1.6505   -3.1456 N.ar      1 <0>        -0.4522
     27 C21         5.5513   -2.5260   -2.1897 C.ar      1 <0>         0.1165
     28 C22         4.5435   -2.9831   -1.3678 C.ar      1 <0>        -0.1630
     29 H1          3.5300    1.8666    0.2198 H         1 <0>         0.1549
     30 H2          3.4700   -0.5856    0.0325 H         1 <0>         0.1368
     31 H3         -0.8051   -0.4857    0.3308 H         1 <0>         0.1416
     32 H4          1.4378    3.1377    0.4612 H         1 <0>         0.1559
     33 H5          0.1352   -5.0970    0.7006 H         1 <0>         0.2683
     34 H6          1.5475   -6.2167   -1.2474 H         1 <0>         0.1388
     35 H7          2.7591   -5.2032   -2.0676 H         1 <0>         0.1319
     36 H8          4.1331   -5.2252    0.0336 H         1 <0>         0.1015
     37 H9          2.9520   -6.3441    0.7557 H         1 <0>         0.1085
     38 H10         3.3795   -7.9711   -1.0661 H         1 <0>         0.1440
     39 H11         4.5606   -6.8522   -1.7882 H         1 <0>         0.1424
     40 H12         6.7077   -6.5323   -0.7383 H         1 <0>         0.1456
     41 H13         5.8152   -5.8082    0.6219 H         1 <0>         0.1342
     42 H14         6.7970   -7.4483    2.1729 H         1 <0>         0.0821
     43 H15         8.0928   -6.5984    1.2964 H         1 <0>         0.1449
     44 H16         6.2419   -9.7432    1.4651 H         1 <0>         0.0835
     45 H17         7.1631  -10.4411    0.1103 H         1 <0>         0.1473
     46 H18         4.8725   -9.7053   -0.5801 H         1 <0>         0.1453
     47 H19         6.1541   -8.8210   -1.4442 H         1 <0>         0.1449
     48 H20         2.0328   -1.1878   -2.7746 H         1 <0>         0.1490
     49 H21         3.9331   -0.4583   -4.1547 H         1 <0>         0.1769
     50 H22         6.5586   -2.8896   -2.0499 H         1 <0>         0.1690
     51 H23         4.7547   -3.6995   -0.5877 H         1 <0>         0.1308
     52 N3          5.1404   -7.7191    0.0594 N.4       1 <0>        -0.3961
     53 H24         4.7141   -7.8986    0.9761 H         1 <0>         0.4285
     54 N4          0.4228   -2.9973    0.6823 N.pl3     1 <0>        -0.4745
     55 H25        -0.3210   -2.6986    1.3240 H         1 <0>         0.4872
@<TRIPOS>BOND
     1    1    6 ar
     2    1    2 ar
     3    1   29 1
     4    2    3 ar
     5    2   30 1
     6    3    4 ar
     7    3   11 1
     8    4    5 ar
     9    4   31 1
    10    5    6 ar
    11    5    7 1
    12    6   32 1
    13    7    8 1
    14    7    9 1
    15    7   10 1
    16   11   12 2
    17   11   54 1
    18   12   13 1
    19   12   23 1
    20   13   14 1
    21   13   15 1
    22   14   33 1
    23   14   54 2
    24   15   16 1
    25   15   34 1
    26   15   35 1
    27   16   17 1
    28   16   36 1
    29   16   37 1
    30   17   38 1
    31   17   39 1
    32   17   52 1
    33   18   19 1
    34   18   40 1
    35   18   41 1
    36   18   52 1
    37   19   20 1
    38   19   42 1
    39   19   43 1
    40   20   21 1
    41   21   22 1
    42   21   44 1
    43   21   45 1
    44   22   46 1
    45   22   47 1
    46   22   52 1
    47   23   28 ar
    48   23   24 ar
    49   24   25 ar
    50   24   48 1
    51   25   26 ar
    52   25   49 1
    53   26   27 ar
    54   27   28 ar
    55   27   50 1
    56   28   51 1
    57   52   53 1
    58   54   55 1
@<TRIPOS>MOLECULE
ZINC03815765
   57    60     0     0     0
SMALL
USER_CHARGES

@<TRIPOS>ATOM
      1 C1          4.8536   -2.7586   -0.0415 C.3       1 <0>        -0.1700
      2 C2          3.5496   -2.0034   -0.0612 C.2       1 <0>         0.5079
      3 O1          2.4992   -2.6081   -0.0995 O.2       1 <0>        -0.4672
      4 N1          3.5509   -0.6558   -0.0364 N.am      1 <0>        -0.6417
      5 C3          2.3486    0.0405   -0.0545 C.ar      1 <0>         0.5555
      6 N2          1.2114   -0.6376   -0.0964 N.ar      1 <0>        -0.5024
      7 C4          0.0434   -0.0130   -0.1145 C.ar      1 <0>         0.1916
      8 C5          0.0143    1.3682   -0.0893 C.ar      1 <0>        -0.2741
      9 C6          1.2325    2.0599   -0.0452 C.ar      1 <0>         0.2810
     10 N3          2.3700    1.3623   -0.0292 N.ar      1 <0>        -0.5274
     11 C7          1.2568    3.5333   -0.0169 C.2       1 <0>         0.0105
     12 C8          2.2390    4.3388    0.5336 C.2       1 <0>         0.1253
     13 N4          1.8654    5.6159    0.3396 N.2       1 <0>        -0.4698
     14 C9          0.7238    5.6468   -0.2908 C.2       1 <0>         0.2044
     15 N5          0.3095    4.3872   -0.5383 N.pl3     1 <0>        -0.4514
     16 C10        -0.9215    3.9988   -1.2310 C.3       1 <0>         0.1065
     17 C11        -1.6146    5.2481   -1.7784 C.3       1 <0>        -0.1706
     18 C12        -2.9574    4.8562   -2.3982 C.3       1 <0>        -0.0002
     19 C13        -4.0008    6.9683   -1.8350 C.3       1 <0>        -0.0444
     20 C14        -4.6354    8.2284   -2.4295 C.3       1 <0>         0.0346
     21 O2         -5.7552    7.8563   -3.2375 O.3       1 <0>        -0.3554
     22 C15        -5.4230    6.9683   -4.3082 C.3       1 <0>         0.0341
     23 C16        -4.7964    5.6955   -3.7326 C.3       1 <0>        -0.0383
     24 C17         3.4734    3.8787    1.2115 C.ar      1 <0>        -0.0261
     25 C18         3.4552    2.7195    1.9867 C.ar      1 <0>        -0.0399
     26 C19         4.6081    2.2928    2.6125 C.ar      1 <0>        -0.1605
     27 C20         5.7806    3.0194    2.4800 C.ar      1 <0>         0.1134
     28 C21         5.8025    4.1744    1.7147 C.ar      1 <0>        -0.1572
     29 C22         4.6559    4.6066    1.0812 C.ar      1 <0>        -0.0542
     30 F1          6.9058    2.6006    3.0993 F         1 <0>        -0.1354
     31 H1          5.1415   -2.9596    0.9904 H         1 <0>         0.1036
     32 H2          4.7356   -3.7012   -0.5761 H         1 <0>         0.1041
     33 H3          5.6268   -2.1612   -0.5247 H         1 <0>         0.0865
     34 H4          4.3911   -0.1721   -0.0058 H         1 <0>         0.4266
     35 H5         -0.8767   -0.5775   -0.1483 H         1 <0>         0.1761
     36 H6         -0.9243    1.9021   -0.1078 H         1 <0>         0.1406
     37 H7          0.1937    6.5437   -0.5753 H         1 <0>         0.2111
     38 H8         -0.6786    3.3276   -2.0548 H         1 <0>         0.1030
     39 H9         -1.5866    3.4908   -0.5326 H         1 <0>         0.1017
     40 H10        -1.7819    5.9559   -0.9666 H         1 <0>         0.1029
     41 H11        -0.9844    5.7096   -2.5386 H         1 <0>         0.1046
     42 H12        -2.7900    4.1484   -3.2101 H         1 <0>         0.1384
     43 H13        -3.5876    4.3947   -1.6380 H         1 <0>         0.1394
     44 H14        -4.7176    6.4748   -1.1787 H         1 <0>         0.1427
     45 H15        -3.1130    7.2422   -1.2649 H         1 <0>         0.1408
     46 H16        -3.9014    8.7507   -3.0432 H         1 <0>         0.0821
     47 H17        -4.9689    8.8833   -1.6245 H         1 <0>         0.1431
     48 H18        -4.7119    7.4540   -4.9764 H         1 <0>         0.0820
     49 H19        -6.3263    6.7113   -4.8614 H         1 <0>         0.1433
     50 H20        -4.4894    5.0402   -4.5478 H         1 <0>         0.1427
     51 H21        -5.5260    5.1816   -3.1067 H         1 <0>         0.1422
     52 H22         2.5408    2.1550    2.0942 H         1 <0>         0.1186
     53 H23         4.5959    1.3932    3.2100 H         1 <0>         0.1354
     54 H24         6.7187    4.7374    1.6144 H         1 <0>         0.1404
     55 H25         4.6738    5.5073    0.4855 H         1 <0>         0.1367
     56 N6         -3.6061    6.0698   -2.9399 N.4       1 <0>        -0.3959
     57 H26        -2.9404    6.5608   -3.5482 H         1 <0>         0.4284
@<TRIPOS>BOND
     1    1    2 1
     2    1   31 1
     3    1   32 1
     4    1   33 1
     5    2    3 2
     6    2    4 am
     7    4    5 1
     8    4   34 1
     9    5   10 ar
    10    5    6 ar
    11    6    7 ar
    12    7    8 ar
    13    7   35 1
    14    8    9 ar
    15    8   36 1
    16    9   10 ar
    17    9   11 1
    18   11   15 1
    19   11   12 2
    20   12   13 1
    21   12   24 1
    22   13   14 2
    23   14   15 1
    24   14   37 1
    25   15   16 1
    26   16   17 1
    27   16   38 1
    28   16   39 1
    29   17   18 1
    30   17   40 1
    31   17   41 1
    32   18   42 1
    33   18   43 1
    34   18   56 1
    35   19   20 1
    36   19   44 1
    37   19   45 1
    38   19   56 1
    39   20   21 1
    40   20   46 1
    41   20   47 1
    42   21   22 1
    43   22   23 1
    44   22   48 1
    45   22   49 1
    46   23   50 1
    47   23   51 1
    48   23   56 1
    49   24   29 ar
    50   24   25 ar
    51   25   26 ar
    52   25   52 1
    53   26   27 ar
    54   26   53 1
    55   27   28 ar
    56   27   30 1
    57   28   29 ar
    58   28   54 1
    59   29   55 1
    60   56   57 1
@<TRIPOS>MOLECULE
ZINC03815765
   58    61     0     0     0
SMALL
USER_CHARGES

@<TRIPOS>ATOM
      1 C1          4.8536   -2.7586   -0.0415 C.3       1 <0>        -0.1709
      2 C2          3.5496   -2.0034   -0.0612 C.2       1 <0>         0.5081
      3 O1          2.4992   -2.6081   -0.0995 O.2       1 <0>        -0.4575
      4 N1          3.5509   -0.6558   -0.0364 N.am      1 <0>        -0.6407
      5 C3          2.3486    0.0405   -0.0545 C.ar      1 <0>         0.5672
      6 N2          1.2114   -0.6376   -0.0964 N.ar      1 <0>        -0.4819
      7 C4          0.0434   -0.0130   -0.1145 C.ar      1 <0>         0.2059
      8 C5          0.0143    1.3682   -0.0893 C.ar      1 <0>        -0.2571
      9 C6          1.2325    2.0599   -0.0452 C.ar      1 <0>         0.2427
     10 N3          2.3700    1.3623   -0.0292 N.ar      1 <0>        -0.5249
     11 C7          1.2568    3.5333   -0.0169 C.2       1 <0>         0.0945
     12 C8          2.2390    4.3388    0.5336 C.2       1 <0>         0.1621
     13 C9          0.7238    5.6468   -0.2908 C.cat     1 <0>         0.2872
     14 N4          0.3095    4.3872   -0.5383 N.pl3     1 <0>        -0.3981
     15 C10        -0.9215    3.9988   -1.2310 C.3       1 <0>         0.0925
     16 C11        -1.6146    5.2481   -1.7784 C.3       1 <0>        -0.1817
     17 C12        -2.9574    4.8562   -2.3982 C.3       1 <0>        -0.0008
     18 C13        -4.0008    6.9683   -1.8350 C.3       1 <0>        -0.0444
     19 C14        -4.6354    8.2284   -2.4295 C.3       1 <0>         0.0334
     20 O2         -5.7552    7.8563   -3.2375 O.3       1 <0>        -0.3514
     21 C15        -5.4230    6.9683   -4.3082 C.3       1 <0>         0.0329
     22 C16        -4.7964    5.6955   -3.7326 C.3       1 <0>        -0.0388
     23 C17         3.4734    3.8787    1.2115 C.ar      1 <0>        -0.0900
     24 C18         3.4552    2.7195    1.9867 C.ar      1 <0>        -0.0135
     25 C19         4.6081    2.2928    2.6125 C.ar      1 <0>        -0.1557
     26 C20         5.7806    3.0194    2.4800 C.ar      1 <0>         0.1529
     27 C21         5.8025    4.1744    1.7147 C.ar      1 <0>        -0.1510
     28 C22         4.6559    4.6066    1.0812 C.ar      1 <0>        -0.0554
     29 F1          6.9058    2.6006    3.0993 F         1 <0>        -0.1177
     30 H1          5.1415   -2.9596    0.9904 H         1 <0>         0.1075
     31 H2          4.7356   -3.7012   -0.5761 H         1 <0>         0.1092
     32 H3          5.6268   -2.1612   -0.5247 H         1 <0>         0.0884
     33 H4          4.3911   -0.1721   -0.0058 H         1 <0>         0.4285
     34 H5         -0.8767   -0.5775   -0.1483 H         1 <0>         0.1879
     35 H6         -0.9243    1.9021   -0.1078 H         1 <0>         0.1469
     36 H7          0.1937    6.5437   -0.5753 H         1 <0>         0.2619
     37 H8         -0.6786    3.3276   -2.0548 H         1 <0>         0.1347
     38 H9         -1.5866    3.4908   -0.5326 H         1 <0>         0.1331
     39 H10        -1.7819    5.9559   -0.9666 H         1 <0>         0.1076
     40 H11        -0.9844    5.7096   -2.5386 H         1 <0>         0.1127
     41 H12        -2.7900    4.1484   -3.2101 H         1 <0>         0.1442
     42 H13        -3.5876    4.3947   -1.6380 H         1 <0>         0.1448
     43 H14        -4.7176    6.4748   -1.1787 H         1 <0>         0.1453
     44 H15        -3.1130    7.2422   -1.2649 H         1 <0>         0.1359
     45 H16        -3.9014    8.7507   -3.0432 H         1 <0>         0.0824
     46 H17        -4.9689    8.8833   -1.6245 H         1 <0>         0.1445
     47 H18        -4.7119    7.4540   -4.9764 H         1 <0>         0.0838
     48 H19        -6.3263    6.7113   -4.8614 H         1 <0>         0.1473
     49 H20        -4.4894    5.0402   -4.5478 H         1 <0>         0.1455
     50 H21        -5.5260    5.1816   -3.1067 H         1 <0>         0.1452
     51 H22         2.5408    2.1550    2.0942 H         1 <0>         0.1294
     52 H23         4.5959    1.3932    3.2100 H         1 <0>         0.1503
     53 H24         6.7187    4.7374    1.6144 H         1 <0>         0.1541
     54 H25         4.6738    5.5073    0.4855 H         1 <0>         0.1365
     55 N5         -3.6061    6.0698   -2.9399 N.4       1 <0>        -0.3967
     56 H26        -2.9404    6.5608   -3.5482 H         1 <0>         0.4288
     57 N6          1.8658    5.6165    0.3398 N.pl3     1 <0>        -0.4750
     58 H27         2.3977    6.4412    0.6417 H         1 <0>         0.4870
@<TRIPOS>BOND
     1    1    2 1
     2    1   30 1
     3    1   31 1
     4    1   32 1
     5    2    3 2
     6    2    4 am
     7    4    5 1
     8    4   33 1
     9    5   10 ar
    10    5    6 ar
    11    6    7 ar
    12    7    8 ar
    13    7   34 1
    14    8    9 ar
    15    8   35 1
    16    9   10 ar
    17    9   11 1
    18   11   14 1
    19   11   12 2
    20   12   23 1
    21   12   57 1
    22   13   14 1
    23   13   36 1
    24   13   57 2
    25   14   15 1
    26   15   16 1
    27   15   37 1
    28   15   38 1
    29   16   17 1
    30   16   39 1
    31   16   40 1
    32   17   41 1
    33   17   42 1
    34   17   55 1
    35   18   19 1
    36   18   43 1
    37   18   44 1
    38   18   55 1
    39   19   20 1
    40   19   45 1
    41   19   46 1
    42   20   21 1
    43   21   22 1
    44   21   47 1
    45   21   48 1
    46   22   49 1
    47   22   50 1
    48   22   55 1
    49   23   28 ar
    50   23   24 ar
    51   24   25 ar
    52   24   51 1
    53   25   26 ar
    54   25   52 1
    55   26   27 ar
    56   26   29 1
    57   27   28 ar
    58   27   53 1
    59   28   54 1
    60   55   56 1
    61   57   58 1
@<TRIPOS>MOLECULE
ZINC03815767
   38    40     0     0     0
SMALL
USER_CHARGES

@<TRIPOS>ATOM
      1 C1          1.1449    3.0852    0.0077 C.3       1 <0>        -0.1564
      2 C2          1.2864    1.5618   -0.0018 C.3       1 <0>         0.2173
      3 C3          2.0636    1.1140    1.2377 C.3       1 <0>        -0.1726
      4 C4          2.0284    1.1339   -1.2418 C.2       1 <0>         0.1762
      5 N1          2.2495   -0.1446   -1.6145 N.2       1 <0>        -0.4597
      6 H1          2.5323    2.9405   -2.0706 H         1 <0>         0.4286
      7 C5          2.9537   -0.1117   -2.7971 C.2       1 <0>         0.0587
      8 C6          3.1348    1.2260   -3.1002 C.2       1 <0>         0.0219
      9 N2          2.5553    1.9419   -2.1193 N.pl3     1 <0>        -0.5049
     10 C7          3.8418    1.7697   -4.2831 C.ar      1 <0>        -0.0320
     11 C8          4.9557    1.1070   -4.7982 C.ar      1 <0>        -0.0628
     12 C9          5.6074    1.6144   -5.9030 C.ar      1 <0>        -0.1449
     13 C10         5.1636    2.7861   -6.4946 C.ar      1 <0>         0.1079
     14 C11         4.0609    3.4513   -5.9831 C.ar      1 <0>        -0.1467
     15 C12         3.3992    2.9490   -4.8818 C.ar      1 <0>        -0.0850
     16 F1          5.8083    3.2820   -7.5733 F         1 <0>        -0.1344
     17 C13         3.4182   -1.2698   -3.5846 C.ar      1 <0>         0.0416
     18 C14         3.2580   -1.3055   -4.9764 C.ar      1 <0>        -0.1551
     19 C15         3.7115   -2.4052   -5.6728 C.ar      1 <0>         0.1014
     20 N3          4.2795   -3.4182   -5.0455 N.ar      1 <0>        -0.4830
     21 C16         4.4456   -3.4278   -3.7361 C.ar      1 <0>         0.1010
     22 C17         4.0268   -2.3675   -2.9613 C.ar      1 <0>        -0.1473
     23 O1         -0.0110    0.9628    0.0073 O.3       1 <0>        -0.5445
     24 H2          0.6082    3.3946    0.9045 H         1 <0>         0.0872
     25 H3          2.1345    3.5420    0.0007 H         1 <0>         0.0738
     26 H4          0.5912    3.4042   -0.8753 H         1 <0>         0.0681
     27 H5          2.1644    0.0287    1.2309 H         1 <0>         0.0728
     28 H6          3.0532    1.5708    1.2307 H         1 <0>         0.0672
     29 H7          1.5269    1.4234    2.1345 H         1 <0>         0.0770
     30 H8          5.3050    0.1960   -4.3350 H         1 <0>         0.1354
     31 H9          6.4674    1.0995   -6.3054 H         1 <0>         0.1426
     32 H10         3.7191    4.3647   -6.4471 H         1 <0>         0.1415
     33 H11         2.5401    3.4684   -4.4836 H         1 <0>         0.1303
     34 H12         2.7900   -0.4823   -5.4957 H         1 <0>         0.1338
     35 H13         3.5960   -2.4407   -6.7460 H         1 <0>         0.1581
     36 H14         4.9157   -4.2785   -3.2652 H         1 <0>         0.1589
     37 H15         4.1660   -2.3823   -1.8904 H         1 <0>         0.1379
     38 H16         0.0021   -0.0041    0.0020 H         1 <0>         0.3901
@<TRIPOS>BOND
     1    1    2 1
     2    1   24 1
     3    1   25 1
     4    1   26 1
     5    2    3 1
     6    2    4 1
     7    2   23 1
     8    3   27 1
     9    3   28 1
    10    3   29 1
    11    4    5 2
    12    4    9 1
    13    5    7 1
    14    6    9 1
    15    7    8 2
    16    7   17 1
    17    8    9 1
    18    8   10 1
    19   10   15 ar
    20   10   11 ar
    21   11   12 ar
    22   11   30 1
    23   12   13 ar
    24   12   31 1
    25   13   14 ar
    26   13   16 1
    27   14   15 ar
    28   14   32 1
    29   15   33 1
    30   17   22 ar
    31   17   18 ar
    32   18   19 ar
    33   18   34 1
    34   19   20 ar
    35   19   35 1
    36   20   21 ar
    37   21   22 ar
    38   21   36 1
    39   22   37 1
    40   23   38 1
@<TRIPOS>MOLECULE
ZINC03815767
   39    41     0     0     0
SMALL
USER_CHARGES

@<TRIPOS>ATOM
      1 C1          1.1449    3.0852    0.0077 C.3       1 <0>        -0.1665
      2 C2          1.2864    1.5618   -0.0018 C.3       1 <0>         0.1917
      3 C3          2.0636    1.1140    1.2377 C.3       1 <0>        -0.1885
      4 C4          2.0284    1.1339   -1.2418 C.cat     1 <0>         0.2997
      5 N1          2.2495   -0.1446   -1.6145 N.pl3     1 <0>        -0.4999
      6 H1          1.9560   -0.9642   -1.1225 H         1 <0>         0.4711
      7 C5          2.9537   -0.1117   -2.7971 C.2       1 <0>         0.1143
      8 C6          3.1432    1.2260   -3.0952 C.2       1 <0>         0.1139
      9 C7          3.8562    1.7697   -4.2745 C.ar      1 <0>        -0.0855
     10 C8          4.9715    1.1059   -4.7851 C.ar      1 <0>        -0.0454
     11 C9          5.6288    1.6133   -5.8866 C.ar      1 <0>        -0.1460
     12 C10         5.1892    2.7861   -6.4793 C.ar      1 <0>         0.1445
     13 C11         4.0851    3.4523   -5.9722 C.ar      1 <0>        -0.1464
     14 C12         3.4178    2.9500   -4.8742 C.ar      1 <0>        -0.0618
     15 F1          5.8394    3.2819   -7.5547 F         1 <0>        -0.1198
     16 C13         3.4182   -1.2698   -3.5846 C.ar      1 <0>        -0.0218
     17 C14         3.2580   -1.3055   -4.9764 C.ar      1 <0>        -0.1315
     18 C15         3.7115   -2.4052   -5.6728 C.ar      1 <0>         0.1178
     19 N2          4.2795   -3.4182   -5.0455 N.ar      1 <0>        -0.4567
     20 C16         4.4456   -3.4278   -3.7361 C.ar      1 <0>         0.1176
     21 C17         4.0268   -2.3675   -2.9613 C.ar      1 <0>        -0.1486
     22 O1         -0.0110    0.9628    0.0073 O.3       1 <0>        -0.5196
     23 H2          0.6082    3.3946    0.9045 H         1 <0>         0.1111
     24 H3          2.1345    3.5420    0.0007 H         1 <0>         0.0882
     25 H4          0.5912    3.4042   -0.8753 H         1 <0>         0.0818
     26 H5          2.1644    0.0287    1.2309 H         1 <0>         0.0719
     27 H6          3.0532    1.5708    1.2307 H         1 <0>         0.0864
     28 H7          1.5269    1.4234    2.1345 H         1 <0>         0.1071
     29 H8          5.3176    0.1941   -4.3211 H         1 <0>         0.1401
     30 H9          6.4899    1.0976   -6.2855 H         1 <0>         0.1535
     31 H10         3.7465    4.3665   -6.4370 H         1 <0>         0.1536
     32 H11         2.5576    3.4702   -4.4795 H         1 <0>         0.1377
     33 H12         2.7900   -0.4823   -5.4957 H         1 <0>         0.1467
     34 H13         3.5960   -2.4407   -6.7460 H         1 <0>         0.1728
     35 H14         4.9157   -4.2785   -3.2652 H         1 <0>         0.1719
     36 H15         4.1660   -2.3823   -1.8904 H         1 <0>         0.1419
     37 H16         0.0021   -0.0041    0.0020 H         1 <0>         0.3879
     38 N3          2.5603    1.9425   -2.1163 N.pl3     1 <0>        -0.4650
     39 H17         2.5377    2.9678   -2.0656 H         1 <0>         0.4800
@<TRIPOS>BOND
     1    1    2 1
     2    1   23 1
     3    1   24 1
     4    1   25 1
     5    2    3 1
     6    2    4 1
     7    2   22 1
     8    3   26 1
     9    3   27 1
    10    3   28 1
    11    4    5 1
    12    4   38 2
    13    5    6 1
    14    5    7 1
    15    7    8 2
    16    7   16 1
    17    8    9 1
    18    8   38 1
    19    9   14 ar
    20    9   10 ar
    21   10   11 ar
    22   10   29 1
    23   11   12 ar
    24   11   30 1
    25   12   13 ar
    26   12   15 1
    27   13   14 ar
    28   13   31 1
    29   14   32 1
    30   16   21 ar
    31   16   17 ar
    32   17   18 ar
    33   17   33 1
    34   18   19 ar
    35   18   34 1
    36   19   20 ar
    37   20   21 ar
    38   20   35 1
    39   21   36 1
    40   22   37 1
    41   38   39 1
@<TRIPOS>MOLECULE
ZINC03815767
   38    40     0     0     0
SMALL
USER_CHARGES

@<TRIPOS>ATOM
      1 C1          1.1449    3.0852    0.0077 C.3       1 <0>        -0.1564
      2 C2          1.2864    1.5618   -0.0018 C.3       1 <0>         0.2173
      3 C3          2.0636    1.1140    1.2377 C.3       1 <0>        -0.1726
      4 C4          2.0284    1.1339   -1.2418 C.2       1 <0>         0.1762
      5 N1          2.2495   -0.1446   -1.6145 N.2       1 <0>        -0.4597
      6 H1          2.5323    2.9405   -2.0706 H         1 <0>         0.4286
      7 C5          2.9537   -0.1117   -2.7971 C.2       1 <0>         0.0587
      8 C6          3.1348    1.2260   -3.1002 C.2       1 <0>         0.0219
      9 N2          2.5553    1.9419   -2.1193 N.pl3     1 <0>        -0.5049
     10 C7          3.8418    1.7697   -4.2831 C.ar      1 <0>        -0.0320
     11 C8          4.9557    1.1070   -4.7982 C.ar      1 <0>        -0.0628
     12 C9          5.6074    1.6144   -5.9030 C.ar      1 <0>        -0.1449
     13 C10         5.1636    2.7861   -6.4946 C.ar      1 <0>         0.1079
     14 C11         4.0609    3.4513   -5.9831 C.ar      1 <0>        -0.1467
     15 C12         3.3992    2.9490   -4.8818 C.ar      1 <0>        -0.0850
     16 F1          5.8083    3.2820   -7.5733 F         1 <0>        -0.1344
     17 C13         3.4182   -1.2698   -3.5846 C.ar      1 <0>         0.0416
     18 C14         3.2580   -1.3055   -4.9764 C.ar      1 <0>        -0.1551
     19 C15         3.7115   -2.4052   -5.6728 C.ar      1 <0>         0.1014
     20 N3          4.2795   -3.4182   -5.0455 N.ar      1 <0>        -0.4830
     21 C16         4.4456   -3.4278   -3.7361 C.ar      1 <0>         0.1010
     22 C17         4.0268   -2.3675   -2.9613 C.ar      1 <0>        -0.1473
     23 O1         -0.0110    0.9628    0.0073 O.3       1 <0>        -0.5445
     24 H2          0.6082    3.3946    0.9045 H         1 <0>         0.0872
     25 H3          2.1345    3.5420    0.0007 H         1 <0>         0.0738
     26 H4          0.5912    3.4042   -0.8753 H         1 <0>         0.0681
     27 H5          2.1644    0.0287    1.2309 H         1 <0>         0.0728
     28 H6          3.0532    1.5708    1.2307 H         1 <0>         0.0672
     29 H7          1.5269    1.4234    2.1345 H         1 <0>         0.0770
     30 H8          5.3050    0.1960   -4.3350 H         1 <0>         0.1354
     31 H9          6.4674    1.0995   -6.3054 H         1 <0>         0.1426
     32 H10         3.7191    4.3647   -6.4471 H         1 <0>         0.1415
     33 H11         2.5401    3.4684   -4.4836 H         1 <0>         0.1303
     34 H12         2.7900   -0.4823   -5.4957 H         1 <0>         0.1338
     35 H13         3.5960   -2.4407   -6.7460 H         1 <0>         0.1581
     36 H14         4.9157   -4.2785   -3.2652 H         1 <0>         0.1589
     37 H15         4.1660   -2.3823   -1.8904 H         1 <0>         0.1379
     38 H16         0.0021   -0.0041    0.0020 H         1 <0>         0.3901
@<TRIPOS>BOND
     1    1    2 1
     2    1   24 1
     3    1   25 1
     4    1   26 1
     5    2    3 1
     6    2    4 1
     7    2   23 1
     8    3   27 1
     9    3   28 1
    10    3   29 1
    11    4    5 2
    12    4    9 1
    13    5    7 1
    14    6    9 1
    15    7    8 2
    16    7   17 1
    17    8    9 1
    18    8   10 1
    19   10   15 ar
    20   10   11 ar
    21   11   12 ar
    22   11   30 1
    23   12   13 ar
    24   12   31 1
    25   13   14 ar
    26   13   16 1
    27   14   15 ar
    28   14   32 1
    29   15   33 1
    30   17   22 ar
    31   17   18 ar
    32   18   19 ar
    33   18   34 1
    34   19   20 ar
    35   19   35 1
    36   20   21 ar
    37   21   22 ar
    38   21   36 1
    39   22   37 1
    40   23   38 1
@<TRIPOS>MOLECULE
ZINC03815768
   54    57     0     0     0
SMALL
USER_CHARGES

@<TRIPOS>ATOM
      1 C1         -1.4192    4.4337    2.9349 C.ar      1 <0>        -0.0723
      2 C2         -0.6824    4.8865    4.0096 C.ar      1 <0>        -0.1519
      3 C3         -0.6151    6.2431    4.2840 C.ar      1 <0>         0.1095
      4 C4         -1.2825    7.1515    3.4782 C.ar      1 <0>        -0.1525
      5 C5         -2.0179    6.7088    2.3983 C.ar      1 <0>        -0.0591
      6 C6         -2.0887    5.3444    2.1180 C.ar      1 <0>        -0.0276
      7 C7         -2.8775    4.8637    0.9597 C.2       1 <0>         0.0852
      8 C8         -2.5684    3.7868    0.1481 C.2       1 <0>         0.0095
      9 N1         -3.5714    3.7156   -0.7923 N.pl3     1 <0>        -0.4523
     10 C9         -4.4407    4.7146   -0.5305 C.2       1 <0>         0.2042
     11 N2         -4.0270    5.3935    0.5033 N.2       1 <0>        -0.4714
     12 C10        -3.6771    2.7350   -1.8757 C.3       1 <0>         0.1032
     13 C11        -2.8333    3.1967   -3.0655 C.3       1 <0>        -0.1342
     14 C12        -3.0403    2.2383   -4.2400 C.3       1 <0>        -0.1470
     15 C13        -2.1965    2.7000   -5.4299 C.3       1 <0>        -0.0035
     16 C14        -1.8561    0.4468   -6.2512 C.3       1 <0>        -0.0429
     17 C15        -2.1370   -0.4937   -7.4261 C.3       1 <0>         0.0349
     18 O1         -1.5712    0.0583   -8.6179 O.3       1 <0>        -0.3558
     19 C16        -2.0744    1.3561   -8.9465 C.3       1 <0>         0.0343
     20 C17        -1.7930    2.3153   -7.7870 C.3       1 <0>        -0.0389
     21 C18        -1.3965    2.8976    0.2632 C.ar      1 <0>         0.0314
     22 C19        -1.5526    1.5078    0.3520 C.ar      1 <0>        -0.1709
     23 C20        -0.4301    0.7155    0.4628 C.ar      1 <0>         0.1064
     24 N3          0.7775    1.2482    0.4759 N.ar      1 <0>        -0.4777
     25 C21         0.9699    2.5512    0.3896 C.ar      1 <0>         0.1095
     26 C22        -0.0957    3.4188    0.2811 C.ar      1 <0>        -0.1469
     27 F1          0.1031    6.6814    5.3410 F         1 <0>        -0.1346
     28 H1         -1.4744    3.3758    2.7242 H         1 <0>         0.1265
     29 H2         -0.1605    4.1823    4.6406 H         1 <0>         0.1391
     30 H3         -1.2271    8.2078    3.6961 H         1 <0>         0.1413
     31 H4         -2.5383    7.4175    1.7712 H         1 <0>         0.1383
     32 H5         -5.3388    4.9223   -1.0932 H         1 <0>         0.2124
     33 H6         -3.3150    1.7679   -1.5270 H         1 <0>         0.0959
     34 H7         -4.7189    2.6438   -2.1827 H         1 <0>         0.1038
     35 H8         -3.1375    4.2016   -3.3585 H         1 <0>         0.0861
     36 H9         -1.7804    3.2036   -2.7834 H         1 <0>         0.0826
     37 H10        -2.7361    1.2335   -3.9470 H         1 <0>         0.0912
     38 H11        -4.0931    2.2314   -4.5221 H         1 <0>         0.0933
     39 H12        -2.5007    3.7048   -5.7229 H         1 <0>         0.1333
     40 H13        -1.1437    2.7069   -5.1478 H         1 <0>         0.1331
     41 H14        -0.7804    0.5174   -6.0905 H         1 <0>         0.1407
     42 H15        -2.3344    0.0587   -5.3519 H         1 <0>         0.1405
     43 H16        -3.2137   -0.6065   -7.5527 H         1 <0>         0.0813
     44 H17        -1.6892   -1.4675   -7.2278 H         1 <0>         0.1422
     45 H18        -3.1493    1.2971   -9.1174 H         1 <0>         0.0815
     46 H19        -1.5814    1.7201   -9.8480 H         1 <0>         0.1427
     47 H20        -2.2251    3.2911   -8.0089 H         1 <0>         0.1416
     48 H21        -0.7162    2.4158   -7.6510 H         1 <0>         0.1406
     49 H22        -2.5373    1.0646    0.3378 H         1 <0>         0.1323
     50 H23        -0.5400   -0.3565    0.5355 H         1 <0>         0.1598
     51 H24         1.9762    2.9430    0.4039 H         1 <0>         0.1624
     52 H25         0.0693    4.4838    0.2112 H         1 <0>         0.1389
     53 N4         -2.4217    1.7766   -6.5630 N.4       1 <0>        -0.3962
     54 H26        -3.4319    1.6815   -6.7203 H         1 <0>         0.4268
@<TRIPOS>BOND
     1    1    6 ar
     2    1    2 ar
     3    1   28 1
     4    2    3 ar
     5    2   29 1
     6    3    4 ar
     7    3   27 1
     8    4    5 ar
     9    4   30 1
    10    5    6 ar
    11    5   31 1
    12    6    7 1
    13    7   11 1
    14    7    8 2
    15    8    9 1
    16    8   21 1
    17    9   10 1
    18    9   12 1
    19   10   11 2
    20   10   32 1
    21   12   13 1
    22   12   33 1
    23   12   34 1
    24   13   14 1
    25   13   35 1
    26   13   36 1
    27   14   15 1
    28   14   37 1
    29   14   38 1
    30   15   39 1
    31   15   40 1
    32   15   53 1
    33   16   17 1
    34   16   41 1
    35   16   42 1
    36   16   53 1
    37   17   18 1
    38   17   43 1
    39   17   44 1
    40   18   19 1
    41   19   20 1
    42   19   45 1
    43   19   46 1
    44   20   47 1
    45   20   48 1
    46   20   53 1
    47   21   26 ar
    48   21   22 ar
    49   22   23 ar
    50   22   49 1
    51   23   24 ar
    52   23   50 1
    53   24   25 ar
    54   25   26 ar
    55   25   51 1
    56   26   52 1
    57   53   54 1
@<TRIPOS>MOLECULE
ZINC03815768
   55    58     0     0     0
SMALL
USER_CHARGES

@<TRIPOS>ATOM
      1 C1         -1.4192    4.4337    2.9349 C.ar      1 <0>        -0.0446
      2 C2         -0.6824    4.8865    4.0096 C.ar      1 <0>        -0.1467
      3 C3         -0.6151    6.2431    4.2840 C.ar      1 <0>         0.1489
      4 C4         -1.2825    7.1515    3.4782 C.ar      1 <0>        -0.1465
      5 C5         -2.0179    6.7088    2.3983 C.ar      1 <0>        -0.0608
      6 C6         -2.0887    5.3444    2.1180 C.ar      1 <0>        -0.0925
      7 C7         -2.8775    4.8637    0.9597 C.2       1 <0>         0.1234
      8 C8         -2.5684    3.7868    0.1481 C.2       1 <0>         0.0949
      9 N1         -3.5714    3.7156   -0.7923 N.pl3     1 <0>        -0.4045
     10 C9         -4.4407    4.7146   -0.5305 C.cat     1 <0>         0.2991
     11 C10        -3.6771    2.7350   -1.8757 C.3       1 <0>         0.0907
     12 C11        -2.8333    3.1967   -3.0655 C.3       1 <0>        -0.1384
     13 C12        -3.0403    2.2383   -4.2400 C.3       1 <0>        -0.1495
     14 C13        -2.1965    2.7000   -5.4299 C.3       1 <0>        -0.0035
     15 C14        -1.8561    0.4468   -6.2512 C.3       1 <0>        -0.0428
     16 C15        -2.1370   -0.4937   -7.4261 C.3       1 <0>         0.0337
     17 O1         -1.5712    0.0583   -8.6179 O.3       1 <0>        -0.3529
     18 C16        -2.0744    1.3561   -8.9465 C.3       1 <0>         0.0333
     19 C17        -1.7930    2.3153   -7.7870 C.3       1 <0>        -0.0388
     20 C18        -1.3965    2.8976    0.2632 C.ar      1 <0>        -0.0167
     21 C19        -1.5526    1.5078    0.3520 C.ar      1 <0>        -0.1553
     22 C20        -0.4301    0.7155    0.4628 C.ar      1 <0>         0.1173
     23 N2          0.7775    1.2482    0.4759 N.ar      1 <0>        -0.4560
     24 C21         0.9699    2.5512    0.3896 C.ar      1 <0>         0.1197
     25 C22        -0.0957    3.4188    0.2811 C.ar      1 <0>        -0.1333
     26 F1          0.1031    6.6814    5.3410 F         1 <0>        -0.1170
     27 H1         -1.4744    3.3758    2.7242 H         1 <0>         0.1373
     28 H2         -0.1605    4.1823    4.6406 H         1 <0>         0.1538
     29 H3         -1.2271    8.2078    3.6961 H         1 <0>         0.1547
     30 H4         -2.5383    7.4175    1.7712 H         1 <0>         0.1377
     31 H5         -5.3388    4.9223   -1.0932 H         1 <0>         0.2654
     32 H6         -3.3150    1.7679   -1.5270 H         1 <0>         0.1238
     33 H7         -4.7189    2.6438   -2.1827 H         1 <0>         0.1296
     34 H8         -3.1375    4.2016   -3.3585 H         1 <0>         0.0925
     35 H9         -1.7804    3.2036   -2.7834 H         1 <0>         0.0919
     36 H10        -2.7361    1.2335   -3.9470 H         1 <0>         0.0971
     37 H11        -4.0931    2.2314   -4.5221 H         1 <0>         0.0986
     38 H12        -2.5007    3.7048   -5.7229 H         1 <0>         0.1340
     39 H13        -1.1437    2.7069   -5.1478 H         1 <0>         0.1344
     40 H14        -0.7804    0.5174   -6.0905 H         1 <0>         0.1417
     41 H15        -2.3344    0.0587   -5.3519 H         1 <0>         0.1389
     42 H16        -3.2137   -0.6065   -7.5527 H         1 <0>         0.0823
     43 H17        -1.6892   -1.4675   -7.2278 H         1 <0>         0.1439
     44 H18        -3.1493    1.2971   -9.1174 H         1 <0>         0.0829
     45 H19        -1.5814    1.7201   -9.8480 H         1 <0>         0.1452
     46 H20        -2.2251    3.2911   -8.0089 H         1 <0>         0.1424
     47 H21        -0.7162    2.4158   -7.6510 H         1 <0>         0.1419
     48 H22        -2.5373    1.0646    0.3378 H         1 <0>         0.1403
     49 H23        -0.5400   -0.3565    0.5355 H         1 <0>         0.1710
     50 H24         1.9762    2.9430    0.4039 H         1 <0>         0.1727
     51 H25         0.0693    4.4838    0.2112 H         1 <0>         0.1456
     52 N3         -2.4217    1.7766   -6.5630 N.4       1 <0>        -0.3968
     53 H26        -3.4319    1.6815   -6.7203 H         1 <0>         0.4276
     54 N4         -4.0273    5.3940    0.5035 N.pl3     1 <0>        -0.4767
     55 H27        -4.5055    6.2080    0.9073 H         1 <0>         0.4850
@<TRIPOS>BOND
     1    1    6 ar
     2    1    2 ar
     3    1   27 1
     4    2    3 ar
     5    2   28 1
     6    3    4 ar
     7    3   26 1
     8    4    5 ar
     9    4   29 1
    10    5    6 ar
    11    5   30 1
    12    6    7 1
    13    7    8 2
    14    7   54 1
    15    8    9 1
    16    8   20 1
    17    9   10 1
    18    9   11 1
    19   10   31 1
    20   10   54 2
    21   11   12 1
    22   11   32 1
    23   11   33 1
    24   12   13 1
    25   12   34 1
    26   12   35 1
    27   13   14 1
    28   13   36 1
    29   13   37 1
    30   14   38 1
    31   14   39 1
    32   14   52 1
    33   15   16 1
    34   15   40 1
    35   15   41 1
    36   15   52 1
    37   16   17 1
    38   16   42 1
    39   16   43 1
    40   17   18 1
    41   18   19 1
    42   18   44 1
    43   18   45 1
    44   19   46 1
    45   19   47 1
    46   19   52 1
    47   20   25 ar
    48   20   21 ar
    49   21   22 ar
    50   21   48 1
    51   22   23 ar
    52   22   49 1
    53   23   24 ar
    54   24   25 ar
    55   24   50 1
    56   25   51 1
    57   52   53 1
    58   54   55 1
@<TRIPOS>MOLECULE
ZINC03815769
   52    55     0     0     0
SMALL
USER_CHARGES

@<TRIPOS>ATOM
      1 C1          3.4545    2.7213    1.9868 C.ar      1 <0>        -0.0369
      2 C2          4.6078    2.2948    2.6121 C.ar      1 <0>        -0.1597
      3 C3          5.7800    3.0217    2.4793 C.ar      1 <0>         0.1122
      4 C4          5.8013    4.1770    1.7145 C.ar      1 <0>        -0.1582
      5 C5          4.6545    4.6087    1.0810 C.ar      1 <0>        -0.0554
      6 C6          3.4723    3.8803    1.2113 C.ar      1 <0>        -0.0256
      7 C7          2.2378    4.3395    0.5330 C.2       1 <0>         0.1231
      8 C8          1.2561    3.5334   -0.0174 C.2       1 <0>         0.0120
      9 N1          0.3085    4.3867   -0.5392 N.pl3     1 <0>        -0.4514
     10 C9          0.7221    5.6465   -0.2920 C.2       1 <0>         0.2019
     11 N2          1.8636    5.6164    0.3386 N.2       1 <0>        -0.4705
     12 C10        -0.9226    3.9975   -1.2314 C.3       1 <0>         0.1077
     13 C11        -1.6166    5.2463   -1.7787 C.3       1 <0>        -0.1708
     14 C12        -2.9594    4.8535   -2.3980 C.3       1 <0>         0.0001
     15 C13        -4.0038    6.9652   -1.8346 C.3       1 <0>        -0.0442
     16 C14        -4.6393    8.2248   -2.4291 C.3       1 <0>         0.0345
     17 O1         -5.7593    7.8519   -3.2366 O.3       1 <0>        -0.3554
     18 C15        -5.4269    6.9640   -4.3073 C.3       1 <0>         0.0340
     19 C16        -4.7994    5.6916   -3.7318 C.3       1 <0>        -0.0383
     20 C17         1.2325    2.0600   -0.0453 C.ar      1 <0>         0.2941
     21 C18         0.0144    1.3677   -0.0894 C.ar      1 <0>        -0.3032
     22 C19         0.0435   -0.0131   -0.1147 C.ar      1 <0>         0.2072
     23 N3          1.2116   -0.6380   -0.0966 N.ar      1 <0>        -0.5691
     24 C20         2.3494    0.0403   -0.0548 C.ar      1 <0>         0.5821
     25 N4          2.3703    1.3632   -0.0289 N.ar      1 <0>        -0.5478
     26 N5          3.5472   -0.6532   -0.0372 N.pl3     1 <0>        -0.8123
     27 F1          6.9058    2.6029    3.0978 F         1 <0>        -0.1362
     28 H1          2.5404    2.1563    2.0943 H         1 <0>         0.1194
     29 H2          4.5962    1.3950    3.2092 H         1 <0>         0.1350
     30 H3          6.7171    4.7406    1.6145 H         1 <0>         0.1396
     31 H4          4.6719    5.5095    0.4854 H         1 <0>         0.1361
     32 H5          0.1916    6.5431   -0.5769 H         1 <0>         0.2103
     33 H6         -0.6795    3.3264   -2.0552 H         1 <0>         0.1028
     34 H7         -1.5871    3.4892   -0.5327 H         1 <0>         0.1016
     35 H8         -1.7840    5.9542   -0.9669 H         1 <0>         0.1026
     36 H9         -0.9869    5.7081   -2.5393 H         1 <0>         0.1042
     37 H10        -2.7919    4.1457   -3.2098 H         1 <0>         0.1383
     38 H11        -3.5890    4.3918   -1.6375 H         1 <0>         0.1393
     39 H12        -4.7201    6.4713   -1.1780 H         1 <0>         0.1427
     40 H13        -3.1160    7.2396   -1.2649 H         1 <0>         0.1409
     41 H14        -3.9059    8.7474   -3.0431 H         1 <0>         0.0821
     42 H15        -4.9729    8.8796   -1.6241 H         1 <0>         0.1431
     43 H16        -4.7164    7.4500   -4.9759 H         1 <0>         0.0819
     44 H17        -6.3303    6.7063   -4.8602 H         1 <0>         0.1432
     45 H18        -4.4924    5.0364   -4.5470 H         1 <0>         0.1426
     46 H19        -5.5284    5.1774   -3.1056 H         1 <0>         0.1421
     47 H20        -0.9244    1.9013   -0.1078 H         1 <0>         0.1361
     48 H21        -0.8767   -0.5775   -0.1485 H         1 <0>         0.1715
     49 H22         3.5465   -1.6230   -0.0555 H         1 <0>         0.4197
     50 H23         4.3873   -0.1693   -0.0066 H         1 <0>         0.4185
     51 N6         -3.6092    6.0664   -2.9401 N.4       1 <0>        -0.3960
     52 H24        -2.9441    6.5576   -3.5488 H         1 <0>         0.4283
@<TRIPOS>BOND
     1    1    6 ar
     2    1    2 ar
     3    1   28 1
     4    2    3 ar
     5    2   29 1
     6    3    4 ar
     7    3   27 1
     8    4    5 ar
     9    4   30 1
    10    5    6 ar
    11    5   31 1
    12    6    7 1
    13    7   11 1
    14    7    8 2
    15    8    9 1
    16    8   20 1
    17    9   10 1
    18    9   12 1
    19   10   11 2
    20   10   32 1
    21   12   13 1
    22   12   33 1
    23   12   34 1
    24   13   14 1
    25   13   35 1
    26   13   36 1
    27   14   37 1
    28   14   38 1
    29   14   51 1
    30   15   16 1
    31   15   39 1
    32   15   40 1
    33   15   51 1
    34   16   17 1
    35   16   41 1
    36   16   42 1
    37   17   18 1
    38   18   19 1
    39   18   43 1
    40   18   44 1
    41   19   45 1
    42   19   46 1
    43   19   51 1
    44   20   25 ar
    45   20   21 ar
    46   21   22 ar
    47   21   47 1
    48   22   23 ar
    49   22   48 1
    50   23   24 ar
    51   24   25 ar
    52   24   26 1
    53   26   49 1
    54   26   50 1
    55   51   52 1
@<TRIPOS>MOLECULE
ZINC03815769
   53    56     0     0     0
SMALL
USER_CHARGES

@<TRIPOS>ATOM
      1 C1          3.4545    2.7213    1.9868 C.ar      1 <0>        -0.0107
      2 C2          4.6078    2.2948    2.6121 C.ar      1 <0>        -0.1551
      3 C3          5.7800    3.0217    2.4793 C.ar      1 <0>         0.1519
      4 C4          5.8013    4.1770    1.7145 C.ar      1 <0>        -0.1519
      5 C5          4.6545    4.6087    1.0810 C.ar      1 <0>        -0.0564
      6 C6          3.4723    3.8803    1.2113 C.ar      1 <0>        -0.0895
      7 C7          2.2378    4.3395    0.5330 C.2       1 <0>         0.1604
      8 C8          1.2561    3.5334   -0.0174 C.2       1 <0>         0.0957
      9 N1          0.3085    4.3867   -0.5392 N.pl3     1 <0>        -0.3978
     10 C9          0.7221    5.6465   -0.2920 C.cat     1 <0>         0.2848
     11 C10        -0.9226    3.9975   -1.2314 C.3       1 <0>         0.0938
     12 C11        -1.6166    5.2463   -1.7787 C.3       1 <0>        -0.1819
     13 C12        -2.9594    4.8535   -2.3980 C.3       1 <0>        -0.0006
     14 C13        -4.0038    6.9652   -1.8346 C.3       1 <0>        -0.0441
     15 C14        -4.6393    8.2248   -2.4291 C.3       1 <0>         0.0333
     16 O1         -5.7593    7.8519   -3.2366 O.3       1 <0>        -0.3514
     17 C15        -5.4269    6.9640   -4.3073 C.3       1 <0>         0.0328
     18 C16        -4.7994    5.6916   -3.7318 C.3       1 <0>        -0.0388
     19 C17         1.2325    2.0600   -0.0453 C.ar      1 <0>         0.2566
     20 C18         0.0144    1.3677   -0.0894 C.ar      1 <0>        -0.2862
     21 C19         0.0435   -0.0131   -0.1147 C.ar      1 <0>         0.2218
     22 N2          1.2116   -0.6380   -0.0966 N.ar      1 <0>        -0.5463
     23 C20         2.3494    0.0403   -0.0548 C.ar      1 <0>         0.5907
     24 N3          2.3703    1.3632   -0.0289 N.ar      1 <0>        -0.5450
     25 N4          3.5472   -0.6532   -0.0372 N.pl3     1 <0>        -0.8019
     26 F1          6.9058    2.6029    3.0978 F         1 <0>        -0.1185
     27 H1          2.5404    2.1563    2.0943 H         1 <0>         0.1302
     28 H2          4.5962    1.3950    3.2092 H         1 <0>         0.1500
     29 H3          6.7171    4.7406    1.6145 H         1 <0>         0.1534
     30 H4          4.6719    5.5095    0.4854 H         1 <0>         0.1359
     31 H5          0.1916    6.5431   -0.5769 H         1 <0>         0.2612
     32 H6         -0.6795    3.3264   -2.0552 H         1 <0>         0.1346
     33 H7         -1.5871    3.4892   -0.5327 H         1 <0>         0.1331
     34 H8         -1.7840    5.9542   -0.9669 H         1 <0>         0.1073
     35 H9         -0.9869    5.7081   -2.5393 H         1 <0>         0.1123
     36 H10        -2.7919    4.1457   -3.2098 H         1 <0>         0.1441
     37 H11        -3.5890    4.3918   -1.6375 H         1 <0>         0.1447
     38 H12        -4.7201    6.4713   -1.1780 H         1 <0>         0.1452
     39 H13        -3.1160    7.2396   -1.2649 H         1 <0>         0.1360
     40 H14        -3.9059    8.7474   -3.0431 H         1 <0>         0.0824
     41 H15        -4.9729    8.8796   -1.6241 H         1 <0>         0.1445
     42 H16        -4.7164    7.4500   -4.9759 H         1 <0>         0.0838
     43 H17        -6.3303    6.7063   -4.8602 H         1 <0>         0.1472
     44 H18        -4.4924    5.0364   -4.5470 H         1 <0>         0.1454
     45 H19        -5.5284    5.1774   -3.1056 H         1 <0>         0.1452
     46 H20        -0.9244    1.9013   -0.1078 H         1 <0>         0.1425
     47 H21        -0.8767   -0.5775   -0.1485 H         1 <0>         0.1836
     48 H22         3.5465   -1.6230   -0.0555 H         1 <0>         0.4274
     49 H23         4.3873   -0.1693   -0.0066 H         1 <0>         0.4216
     50 N5         -3.6092    6.0664   -2.9401 N.4       1 <0>        -0.3968
     51 H24        -2.9441    6.5576   -3.5488 H         1 <0>         0.4286
     52 N6          1.8640    5.6170    0.3388 N.pl3     1 <0>        -0.4753
     53 H25         2.3955    6.4421    0.6406 H         1 <0>         0.4864
@<TRIPOS>BOND
     1    1    6 ar
     2    1    2 ar
     3    1   27 1
     4    2    3 ar
     5    2   28 1
     6    3    4 ar
     7    3   26 1
     8    4    5 ar
     9    4   29 1
    10    5    6 ar
    11    5   30 1
    12    6    7 1
    13    7    8 2
    14    7   52 1
    15    8    9 1
    16    8   19 1
    17    9   10 1
    18    9   11 1
    19   10   31 1
    20   10   52 2
    21   11   12 1
    22   11   32 1
    23   11   33 1
    24   12   13 1
    25   12   34 1
    26   12   35 1
    27   13   36 1
    28   13   37 1
    29   13   50 1
    30   14   15 1
    31   14   38 1
    32   14   39 1
    33   14   50 1
    34   15   16 1
    35   15   40 1
    36   15   41 1
    37   16   17 1
    38   17   18 1
    39   17   42 1
    40   17   43 1
    41   18   44 1
    42   18   45 1
    43   18   50 1
    44   19   24 ar
    45   19   20 ar
    46   20   21 ar
    47   20   46 1
    48   21   22 ar
    49   21   47 1
    50   22   23 ar
    51   23   24 ar
    52   23   25 1
    53   25   48 1
    54   25   49 1
    55   50   51 1
    56   52   53 1
@<TRIPOS>MOLECULE
ZINC03815770
   40    43     0     0     0
SMALL
USER_CHARGES

@<TRIPOS>ATOM
      1 C1         -3.7333    1.9347    0.6999 C.ar      1 <0>        -0.1230
      2 C2         -2.5466    1.2787    0.9036 C.ar      1 <0>        -0.0853
      3 C3         -1.3409    1.9848    0.8579 C.ar      1 <0>        -0.0922
      4 C4         -1.3459    3.3606    0.6098 C.ar      1 <0>        -0.0783
      5 C5         -2.5326    4.0151    0.4009 C.ar      1 <0>        -0.0854
      6 C6         -3.7376    3.3090    0.4466 C.ar      1 <0>        -0.0443
      7 C7         -5.0164    4.0156    0.2277 C.2       1 <0>         0.2653
      8 N1         -5.1494    5.3495   -0.0270 N.2       1 <0>        -0.4557
      9 H1         -6.3878    2.4891    0.4078 H         1 <0>         0.4290
     10 C8         -6.4932    5.6037   -0.1681 C.2       1 <0>         0.0549
     11 C9         -7.1421    4.3925    0.0191 C.2       1 <0>         0.0098
     12 N2         -6.2071    3.4594    0.2473 N.pl3     1 <0>        -0.5085
     13 C10        -8.6058    4.1677   -0.0353 C.ar      1 <0>        -0.0229
     14 C11        -9.4757    5.0752    0.5683 C.ar      1 <0>        -0.0631
     15 C12       -10.8378    4.8645    0.5104 C.ar      1 <0>        -0.1459
     16 C13       -11.3415    3.7477   -0.1369 C.ar      1 <0>         0.1016
     17 C14       -10.4808    2.8401   -0.7331 C.ar      1 <0>        -0.1469
     18 C15        -9.1175    3.0450   -0.6852 C.ar      1 <0>        -0.0849
     19 F1        -12.6759    3.5429   -0.1865 F         1 <0>        -0.1380
     20 C16        -7.1209    6.9079   -0.4528 C.ar      1 <0>         0.0499
     21 C17        -8.0971    7.0353   -1.4505 C.ar      1 <0>        -0.1541
     22 C18        -8.6604    8.2725   -1.6794 C.ar      1 <0>         0.0986
     23 N3         -8.2850    9.3282   -0.9818 N.ar      1 <0>        -0.4873
     24 C19        -7.3661    9.2539   -0.0372 C.ar      1 <0>         0.0986
     25 C20        -6.7537    8.0559    0.2627 C.ar      1 <0>        -0.1471
     26 C21        -0.0634    1.2791    1.0776 C.2       1 <0>         0.4857
     27 O1         -0.0596    0.0844    1.2982 O.co2     1 <0>        -0.6282
     28 H2         -4.6648    1.3893    0.7355 H         1 <0>         0.1108
     29 H3         -2.5433    0.2167    1.0996 H         1 <0>         0.1334
     30 H4         -0.4149    3.9072    0.5790 H         1 <0>         0.1389
     31 H5         -2.5362    5.0773    0.2056 H         1 <0>         0.1323
     32 H6         -9.0839    5.9439    1.0766 H         1 <0>         0.1343
     33 H7        -11.5125    5.5688    0.9743 H         1 <0>         0.1399
     34 H8        -10.8780    1.9707   -1.2359 H         1 <0>         0.1396
     35 H9         -8.4474    2.3369   -1.1499 H         1 <0>         0.1323
     36 H10        -8.4062    6.1767   -2.0281 H         1 <0>         0.1327
     37 H11        -9.4164    8.3803   -2.4432 H         1 <0>         0.1555
     38 H12        -7.0899   10.1443    0.5082 H         1 <0>         0.1573
     39 H13        -6.0029    8.0026    1.0371 H         1 <0>         0.1390
     40 O2          1.0990    1.9588    1.0281 O.co2     1 <0>        -0.7483
@<TRIPOS>BOND
     1    1    6 ar
     2    1    2 ar
     3    1   28 1
     4    2    3 ar
     5    2   29 1
     6    3    4 ar
     7    3   26 1
     8    4    5 ar
     9    4   30 1
    10    5    6 ar
    11    5   31 1
    12    6    7 1
    13    7    8 2
    14    7   12 1
    15    8   10 1
    16    9   12 1
    17   10   11 2
    18   10   20 1
    19   11   12 1
    20   11   13 1
    21   13   18 ar
    22   13   14 ar
    23   14   15 ar
    24   14   32 1
    25   15   16 ar
    26   15   33 1
    27   16   17 ar
    28   16   19 1
    29   17   18 ar
    30   17   34 1
    31   18   35 1
    32   20   25 ar
    33   20   21 ar
    34   21   22 ar
    35   21   36 1
    36   22   23 ar
    37   22   37 1
    38   23   24 ar
    39   24   25 ar
    40   24   38 1
    41   25   39 1
    42   26   27 2
    43   26   40 1
@<TRIPOS>MOLECULE
ZINC03815770
   41    44     0     0     0
SMALL
USER_CHARGES

@<TRIPOS>ATOM
      1 C1         -3.7333    1.9347    0.6999 C.ar      1 <0>        -0.0807
      2 C2         -2.5466    1.2787    0.9036 C.ar      1 <0>        -0.0831
      3 C3         -1.3409    1.9848    0.8579 C.ar      1 <0>        -0.0400
      4 C4         -1.3459    3.3606    0.6098 C.ar      1 <0>        -0.0747
      5 C5         -2.5326    4.0151    0.4009 C.ar      1 <0>        -0.0792
      6 C6         -3.7376    3.3090    0.4466 C.ar      1 <0>        -0.1218
      7 C7         -5.0164    4.0156    0.2277 C.cat     1 <0>         0.4200
      8 N1         -5.1494    5.3495   -0.0270 N.pl3     1 <0>        -0.5158
      9 H1         -4.4083    6.0171   -0.0978 H         1 <0>         0.4708
     10 C8         -6.4932    5.6037   -0.1681 C.2       1 <0>         0.1042
     11 C9         -7.1415    4.3907    0.0096 C.2       1 <0>         0.1032
     12 C10        -8.6047    4.1647   -0.0516 C.ar      1 <0>        -0.0742
     13 C11        -9.4781    5.0712    0.5484 C.ar      1 <0>        -0.0466
     14 C12       -10.8398    4.8593    0.4842 C.ar      1 <0>        -0.1471
     15 C13       -11.3395    3.7424   -0.1659 C.ar      1 <0>         0.1354
     16 C14       -10.4753    2.8358   -0.7586 C.ar      1 <0>        -0.1469
     17 C15        -9.1124    3.0418   -0.7043 C.ar      1 <0>        -0.0634
     18 F1        -12.6735    3.5364   -0.2217 F         1 <0>        -0.1247
     19 C16        -7.1209    6.9079   -0.4528 C.ar      1 <0>        -0.0109
     20 C17        -8.0971    7.0353   -1.4505 C.ar      1 <0>        -0.1321
     21 C18        -8.6604    8.2725   -1.6794 C.ar      1 <0>         0.1138
     22 N2         -8.2850    9.3282   -0.9818 N.ar      1 <0>        -0.4628
     23 C19        -7.3661    9.2539   -0.0372 C.ar      1 <0>         0.1143
     24 C20        -6.7537    8.0559    0.2627 C.ar      1 <0>        -0.1491
     25 C21        -0.0634    1.2791    1.0776 C.2       1 <0>         0.4747
     26 O1         -0.0596    0.0844    1.2982 O.co2     1 <0>        -0.6087
     27 H2         -4.6648    1.3893    0.7355 H         1 <0>         0.1259
     28 H3         -2.5433    0.2167    1.0996 H         1 <0>         0.1513
     29 H4         -0.4149    3.9072    0.5790 H         1 <0>         0.1547
     30 H5         -2.5362    5.0773    0.2056 H         1 <0>         0.1261
     31 H6         -9.0894    5.9400    1.0589 H         1 <0>         0.1390
     32 H7        -11.5172    5.5628    0.9453 H         1 <0>         0.1500
     33 H8        -10.8695    1.9663   -1.2636 H         1 <0>         0.1508
     34 H9         -8.4396    2.3345   -1.1663 H         1 <0>         0.1394
     35 H10        -8.4062    6.1767   -2.0281 H         1 <0>         0.1448
     36 H11        -9.4164    8.3803   -2.4432 H         1 <0>         0.1693
     37 H12        -7.0899   10.1443    0.5082 H         1 <0>         0.1695
     38 H13        -6.0029    8.0026    1.0371 H         1 <0>         0.1428
     39 O2          1.0990    1.9588    1.0281 O.co2     1 <0>        -0.7291
     40 N3         -6.2068    3.4578    0.2417 N.pl3     1 <0>        -0.4866
     41 H14        -6.3922    2.4613    0.4052 H         1 <0>         0.4773
@<TRIPOS>BOND
     1    1    6 ar
     2    1    2 ar
     3    1   27 1
     4    2    3 ar
     5    2   28 1
     6    3    4 ar
     7    3   25 1
     8    4    5 ar
     9    4   29 1
    10    5    6 ar
    11    5   30 1
    12    6    7 1
    13    7    8 1
    14    7   40 2
    15    8    9 1
    16    8   10 1
    17   10   11 2
    18   10   19 1
    19   11   12 1
    20   11   40 1
    21   12   17 ar
    22   12   13 ar
    23   13   14 ar
    24   13   31 1
    25   14   15 ar
    26   14   32 1
    27   15   16 ar
    28   15   18 1
    29   16   17 ar
    30   16   33 1
    31   17   34 1
    32   19   24 ar
    33   19   20 ar
    34   20   21 ar
    35   20   35 1
    36   21   22 ar
    37   21   36 1
    38   22   23 ar
    39   23   24 ar
    40   23   37 1
    41   24   38 1
    42   25   26 2
    43   25   39 1
    44   40   41 1
@<TRIPOS>MOLECULE
ZINC03815770
   40    43     0     0     0
SMALL
USER_CHARGES

@<TRIPOS>ATOM
      1 C1         -3.7333    1.9347    0.6999 C.ar      1 <0>        -0.1230
      2 C2         -2.5466    1.2787    0.9036 C.ar      1 <0>        -0.0853
      3 C3         -1.3409    1.9848    0.8579 C.ar      1 <0>        -0.0922
      4 C4         -1.3459    3.3606    0.6098 C.ar      1 <0>        -0.0783
      5 C5         -2.5326    4.0151    0.4009 C.ar      1 <0>        -0.0854
      6 C6         -3.7376    3.3090    0.4466 C.ar      1 <0>        -0.0443
      7 C7         -5.0164    4.0156    0.2277 C.2       1 <0>         0.2653
      8 N1         -5.1494    5.3495   -0.0270 N.2       1 <0>        -0.4557
      9 H1         -6.3878    2.4891    0.4078 H         1 <0>         0.4290
     10 C8         -6.4932    5.6037   -0.1681 C.2       1 <0>         0.0549
     11 C9         -7.1421    4.3925    0.0191 C.2       1 <0>         0.0098
     12 N2         -6.2071    3.4594    0.2473 N.pl3     1 <0>        -0.5085
     13 C10        -8.6058    4.1677   -0.0353 C.ar      1 <0>        -0.0229
     14 C11        -9.4757    5.0752    0.5683 C.ar      1 <0>        -0.0631
     15 C12       -10.8378    4.8645    0.5104 C.ar      1 <0>        -0.1459
     16 C13       -11.3415    3.7477   -0.1369 C.ar      1 <0>         0.1016
     17 C14       -10.4808    2.8401   -0.7331 C.ar      1 <0>        -0.1469
     18 C15        -9.1175    3.0450   -0.6852 C.ar      1 <0>        -0.0849
     19 F1        -12.6759    3.5429   -0.1865 F         1 <0>        -0.1380
     20 C16        -7.1209    6.9079   -0.4528 C.ar      1 <0>         0.0499
     21 C17        -8.0971    7.0353   -1.4505 C.ar      1 <0>        -0.1541
     22 C18        -8.6604    8.2725   -1.6794 C.ar      1 <0>         0.0986
     23 N3         -8.2850    9.3282   -0.9818 N.ar      1 <0>        -0.4873
     24 C19        -7.3661    9.2539   -0.0372 C.ar      1 <0>         0.0986
     25 C20        -6.7537    8.0559    0.2627 C.ar      1 <0>        -0.1471
     26 C21        -0.0634    1.2791    1.0776 C.2       1 <0>         0.4857
     27 O1         -0.0596    0.0844    1.2982 O.co2     1 <0>        -0.6282
     28 H2         -4.6648    1.3893    0.7355 H         1 <0>         0.1108
     29 H3         -2.5433    0.2167    1.0996 H         1 <0>         0.1334
     30 H4         -0.4149    3.9072    0.5790 H         1 <0>         0.1389
     31 H5         -2.5362    5.0773    0.2056 H         1 <0>         0.1323
     32 H6         -9.0839    5.9439    1.0766 H         1 <0>         0.1343
     33 H7        -11.5125    5.5688    0.9743 H         1 <0>         0.1399
     34 H8        -10.8780    1.9707   -1.2359 H         1 <0>         0.1396
     35 H9         -8.4474    2.3369   -1.1499 H         1 <0>         0.1323
     36 H10        -8.4062    6.1767   -2.0281 H         1 <0>         0.1327
     37 H11        -9.4164    8.3803   -2.4432 H         1 <0>         0.1555
     38 H12        -7.0899   10.1443    0.5082 H         1 <0>         0.1573
     39 H13        -6.0029    8.0026    1.0371 H         1 <0>         0.1390
     40 O2          1.0990    1.9588    1.0281 O.co2     1 <0>        -0.7483
@<TRIPOS>BOND
     1    1    6 ar
     2    1    2 ar
     3    1   28 1
     4    2    3 ar
     5    2   29 1
     6    3    4 ar
     7    3   26 1
     8    4    5 ar
     9    4   30 1
    10    5    6 ar
    11    5   31 1
    12    6    7 1
    13    7    8 2
    14    7   12 1
    15    8   10 1
    16    9   12 1
    17   10   11 2
    18   10   20 1
    19   11   12 1
    20   11   13 1
    21   13   18 ar
    22   13   14 ar
    23   14   15 ar
    24   14   32 1
    25   15   16 ar
    26   15   33 1
    27   16   17 ar
    28   16   19 1
    29   17   18 ar
    30   17   34 1
    31   18   35 1
    32   20   25 ar
    33   20   21 ar
    34   21   22 ar
    35   21   36 1
    36   22   23 ar
    37   22   37 1
    38   23   24 ar
    39   24   25 ar
    40   24   38 1
    41   25   39 1
    42   26   27 2
    43   26   40 1
@<TRIPOS>MOLECULE
ZINC03815771
   38    41     0     0     0
SMALL
USER_CHARGES

@<TRIPOS>ATOM
      1 C1         -1.6310    8.9481   -1.8398 C.ar      1 <0>        -0.1062
      2 C2         -2.0467    7.6638   -2.1430 C.ar      1 <0>        -0.1145
      3 C3         -1.3390    6.5772   -1.6722 C.ar      1 <0>        -0.1120
      4 C4         -0.2011    6.7757   -0.8887 C.ar      1 <0>        -0.0225
      5 C5          0.2101    8.0739   -0.5824 C.ar      1 <0>        -0.0738
      6 C6         -0.5036    9.1518   -1.0640 C.ar      1 <0>        -0.1159
      7 C7          0.5619    5.6159   -0.3803 C.2       1 <0>         0.2427
      8 N1          1.6848    5.6849    0.3912 N.2       1 <0>        -0.4496
      9 H1         -0.5114    4.0297   -1.1377 H         1 <0>         0.4294
     10 C8          2.0788    4.3921    0.6516 C.2       1 <0>         0.0645
     11 C9          1.1682    3.5692    0.0090 C.2       1 <0>         0.0228
     12 N2          0.2664    4.3546   -0.5997 N.pl3     1 <0>        -0.5065
     13 C10         1.1834    2.0876    0.0010 C.ar      1 <0>         0.0090
     14 C11        -0.0157    1.3753    0.0084 C.ar      1 <0>        -0.1264
     15 C12         0.0032   -0.0043    0.0004 C.ar      1 <0>        -0.0816
     16 C13         1.2086   -0.6827   -0.0155 C.ar      1 <0>        -0.1474
     17 C14         2.4036    0.0183   -0.0234 C.ar      1 <0>         0.1101
     18 C15         2.3963    1.4006   -0.0146 C.ar      1 <0>        -0.1295
     19 F1          3.5777   -0.6500   -0.0393 F         1 <0>        -0.1327
     20 C16         3.2423    3.9671    1.4525 C.ar      1 <0>         0.0390
     21 C17         3.1286    2.9405    2.4001 C.ar      1 <0>        -0.1542
     22 C18         4.2430    2.5725    3.1230 C.ar      1 <0>         0.1017
     23 N3          5.4010    3.1790    2.9396 N.ar      1 <0>        -0.4819
     24 C19         5.5511    4.1534    2.0619 C.ar      1 <0>         0.1013
     25 C20         4.4914    4.5824    1.2918 C.ar      1 <0>        -0.1463
     26 H2         -2.1887    9.7953   -2.2106 H         1 <0>         0.1282
     27 H3         -2.9273    7.5115   -2.7494 H         1 <0>         0.1295
     28 H4         -1.6645    5.5751   -1.9096 H         1 <0>         0.1175
     29 H5          1.0874    8.2342    0.0267 H         1 <0>         0.1383
     30 H6         -0.1840   10.1569   -0.8315 H         1 <0>         0.1314
     31 H7         -0.9580    1.9030    0.0158 H         1 <0>         0.1271
     32 H8         -0.9252   -0.5559    0.0061 H         1 <0>         0.1393
     33 H9          1.2182   -1.7626   -0.0220 H         1 <0>         0.1407
     34 H10         3.3277    1.9470   -0.0204 H         1 <0>         0.1383
     35 H11         2.1833    2.4427    2.5585 H         1 <0>         0.1337
     36 H12         4.1667    1.7801    3.8528 H         1 <0>         0.1582
     37 H13         6.5175    4.6213    1.9458 H         1 <0>         0.1595
     38 H14         4.6216    5.3800    0.5754 H         1 <0>         0.1389
@<TRIPOS>BOND
     1    1    6 ar
     2    1    2 ar
     3    1   26 1
     4    2    3 ar
     5    2   27 1
     6    3    4 ar
     7    3   28 1
     8    4    5 ar
     9    4    7 1
    10    5    6 ar
    11    5   29 1
    12    6   30 1
    13    7    8 2
    14    7   12 1
    15    8   10 1
    16    9   12 1
    17   10   11 2
    18   10   20 1
    19   11   12 1
    20   11   13 1
    21   13   18 ar
    22   13   14 ar
    23   14   15 ar
    24   14   31 1
    25   15   16 ar
    26   15   32 1
    27   16   17 ar
    28   16   33 1
    29   17   18 ar
    30   17   19 1
    31   18   34 1
    32   20   25 ar
    33   20   21 ar
    34   21   22 ar
    35   21   35 1
    36   22   23 ar
    37   22   36 1
    38   23   24 ar
    39   24   25 ar
    40   24   37 1
    41   25   38 1
@<TRIPOS>MOLECULE
ZINC03815771
   39    42     0     0     0
SMALL
USER_CHARGES

@<TRIPOS>ATOM
      1 C1         -1.6310    8.9481   -1.8398 C.ar      1 <0>        -0.0629
      2 C2         -2.0467    7.6638   -2.1430 C.ar      1 <0>        -0.1055
      3 C3         -1.3390    6.5772   -1.6722 C.ar      1 <0>        -0.0744
      4 C4         -0.2011    6.7757   -0.8887 C.ar      1 <0>        -0.0958
      5 C5          0.2101    8.0739   -0.5824 C.ar      1 <0>        -0.0718
      6 C6         -0.5036    9.1518   -1.0640 C.ar      1 <0>        -0.1060
      7 C7          0.5619    5.6159   -0.3803 C.cat     1 <0>         0.3962
      8 N1          1.6848    5.6849    0.3912 N.pl3     1 <0>        -0.5088
      9 H1          2.1370    6.5186    0.7082 H         1 <0>         0.4718
     10 C8          2.0788    4.3921    0.6516 C.2       1 <0>         0.1204
     11 C9          1.1678    3.5692    0.0096 C.2       1 <0>         0.1083
     12 C10         1.1827    2.0876    0.0020 C.ar      1 <0>        -0.0373
     13 C11        -0.0166    1.3755    0.0096 C.ar      1 <0>        -0.1067
     14 C12         0.0021   -0.0041    0.0020 C.ar      1 <0>        -0.0774
     15 C13         1.2073   -0.6827   -0.0136 C.ar      1 <0>        -0.1195
     16 C14         2.4025    0.0180   -0.0217 C.ar      1 <0>         0.1161
     17 C15         2.3954    1.4003   -0.0133 C.ar      1 <0>        -0.1183
     18 F1          3.5764   -0.6505   -0.0374 F         1 <0>        -0.1227
     19 C16         3.2423    3.9671    1.4525 C.ar      1 <0>        -0.0222
     20 C17         3.1286    2.9405    2.4001 C.ar      1 <0>        -0.1317
     21 C18         4.2430    2.5725    3.1230 C.ar      1 <0>         0.1175
     22 N2          5.4010    3.1790    2.9396 N.ar      1 <0>        -0.4567
     23 C19         5.5511    4.1534    2.0619 C.ar      1 <0>         0.1173
     24 C20         4.4914    4.5824    1.2918 C.ar      1 <0>        -0.1483
     25 H2         -2.1887    9.7953   -2.2106 H         1 <0>         0.1458
     26 H3         -2.9273    7.5115   -2.7494 H         1 <0>         0.1478
     27 H4         -1.6645    5.5751   -1.9096 H         1 <0>         0.1319
     28 H5          1.0874    8.2342    0.0267 H         1 <0>         0.1318
     29 H6         -0.1840   10.1569   -0.8315 H         1 <0>         0.1474
     30 H7         -0.9588    1.9034    0.0169 H         1 <0>         0.1344
     31 H8         -0.9265   -0.5555    0.0079 H         1 <0>         0.1507
     32 H9          1.2167   -1.7626   -0.0198 H         1 <0>         0.1519
     33 H10         3.3270    1.9465   -0.0193 H         1 <0>         0.1428
     34 H11         2.1833    2.4427    2.5585 H         1 <0>         0.1462
     35 H12         4.1667    1.7801    3.8528 H         1 <0>         0.1723
     36 H13         6.5175    4.6213    1.9458 H         1 <0>         0.1720
     37 H14         4.6216    5.3800    0.5754 H         1 <0>         0.1425
     38 N3          0.2656    4.3544   -0.5996 N.pl3     1 <0>        -0.4775
     39 H15        -0.5330    4.0208   -1.1520 H         1 <0>         0.4784
@<TRIPOS>BOND
     1    1    6 ar
     2    1    2 ar
     3    1   25 1
     4    2    3 ar
     5    2   26 1
     6    3    4 ar
     7    3   27 1
     8    4    5 ar
     9    4    7 1
    10    5    6 ar
    11    5   28 1
    12    6   29 1
    13    7    8 1
    14    7   38 2
    15    8    9 1
    16    8   10 1
    17   10   11 2
    18   10   19 1
    19   11   12 1
    20   11   38 1
    21   12   17 ar
    22   12   13 ar
    23   13   14 ar
    24   13   30 1
    25   14   15 ar
    26   14   31 1
    27   15   16 ar
    28   15   32 1
    29   16   17 ar
    30   16   18 1
    31   17   33 1
    32   19   24 ar
    33   19   20 ar
    34   20   21 ar
    35   20   34 1
    36   21   22 ar
    37   21   35 1
    38   22   23 ar
    39   23   24 ar
    40   23   36 1
    41   24   37 1
    42   38   39 1
@<TRIPOS>MOLECULE
ZINC03815771
   38    41     0     0     0
SMALL
USER_CHARGES

@<TRIPOS>ATOM
      1 C1         -1.6310    8.9481   -1.8398 C.ar      1 <0>        -0.1062
      2 C2         -2.0467    7.6638   -2.1430 C.ar      1 <0>        -0.1145
      3 C3         -1.3390    6.5772   -1.6722 C.ar      1 <0>        -0.1120
      4 C4         -0.2011    6.7757   -0.8887 C.ar      1 <0>        -0.0225
      5 C5          0.2101    8.0739   -0.5824 C.ar      1 <0>        -0.0738
      6 C6         -0.5036    9.1518   -1.0640 C.ar      1 <0>        -0.1159
      7 C7          0.5619    5.6159   -0.3803 C.2       1 <0>         0.2427
      8 N1          1.6848    5.6849    0.3912 N.2       1 <0>        -0.4496
      9 H1         -0.5114    4.0297   -1.1377 H         1 <0>         0.4294
     10 C8          2.0788    4.3921    0.6516 C.2       1 <0>         0.0645
     11 C9          1.1682    3.5692    0.0090 C.2       1 <0>         0.0228
     12 N2          0.2664    4.3546   -0.5997 N.pl3     1 <0>        -0.5065
     13 C10         1.1834    2.0876    0.0010 C.ar      1 <0>         0.0090
     14 C11        -0.0157    1.3753    0.0084 C.ar      1 <0>        -0.1264
     15 C12         0.0032   -0.0043    0.0004 C.ar      1 <0>        -0.0816
     16 C13         1.2086   -0.6827   -0.0155 C.ar      1 <0>        -0.1474
     17 C14         2.4036    0.0183   -0.0234 C.ar      1 <0>         0.1101
     18 C15         2.3963    1.4006   -0.0146 C.ar      1 <0>        -0.1295
     19 F1          3.5777   -0.6500   -0.0393 F         1 <0>        -0.1327
     20 C16         3.2423    3.9671    1.4525 C.ar      1 <0>         0.0390
     21 C17         3.1286    2.9405    2.4001 C.ar      1 <0>        -0.1542
     22 C18         4.2430    2.5725    3.1230 C.ar      1 <0>         0.1017
     23 N3          5.4010    3.1790    2.9396 N.ar      1 <0>        -0.4819
     24 C19         5.5511    4.1534    2.0619 C.ar      1 <0>         0.1013
     25 C20         4.4914    4.5824    1.2918 C.ar      1 <0>        -0.1463
     26 H2         -2.1887    9.7953   -2.2106 H         1 <0>         0.1282
     27 H3         -2.9273    7.5115   -2.7494 H         1 <0>         0.1295
     28 H4         -1.6645    5.5751   -1.9096 H         1 <0>         0.1175
     29 H5          1.0874    8.2342    0.0267 H         1 <0>         0.1383
     30 H6         -0.1840   10.1569   -0.8315 H         1 <0>         0.1314
     31 H7         -0.9580    1.9030    0.0158 H         1 <0>         0.1271
     32 H8         -0.9252   -0.5559    0.0061 H         1 <0>         0.1393
     33 H9          1.2182   -1.7626   -0.0220 H         1 <0>         0.1407
     34 H10         3.3277    1.9470   -0.0204 H         1 <0>         0.1383
     35 H11         2.1833    2.4427    2.5585 H         1 <0>         0.1337
     36 H12         4.1667    1.7801    3.8528 H         1 <0>         0.1582
     37 H13         6.5175    4.6213    1.9458 H         1 <0>         0.1595
     38 H14         4.6216    5.3800    0.5754 H         1 <0>         0.1389
@<TRIPOS>BOND
     1    1    6 ar
     2    1    2 ar
     3    1   26 1
     4    2    3 ar
     5    2   27 1
     6    3    4 ar
     7    3   28 1
     8    4    5 ar
     9    4    7 1
    10    5    6 ar
    11    5   29 1
    12    6   30 1
    13    7    8 2
    14    7   12 1
    15    8   10 1
    16    9   12 1
    17   10   11 2
    18   10   20 1
    19   11   12 1
    20   11   13 1
    21   13   18 ar
    22   13   14 ar
    23   14   15 ar
    24   14   31 1
    25   15   16 ar
    26   15   32 1
    27   16   17 ar
    28   16   33 1
    29   17   18 ar
    30   17   19 1
    31   18   34 1
    32   20   25 ar
    33   20   21 ar
    34   21   22 ar
    35   21   35 1
    36   22   23 ar
    37   22   36 1
    38   23   24 ar
    39   24   25 ar
    40   24   37 1
    41   25   38 1
@<TRIPOS>MOLECULE
ZINC03815772
   49    52     0     0     0
SMALL
USER_CHARGES

@<TRIPOS>ATOM
      1 C1          1.3457   -1.0835   -2.0597 C.3       1 <0>        -0.6740
      2 S1          0.9310    0.6817   -2.0074 S.o2      1 <0>         2.6145
      3 O1          0.0200    1.0016   -3.0500 O.2       1 <0>        -0.9561
      4 O2          2.1067    1.4550   -1.8100 O.2       1 <0>        -0.9545
      5 N1          0.0601    0.8731   -0.6119 N.pl3     1 <0>        -1.1168
      6 C2          0.6984    0.6455    0.6869 C.3       1 <0>         0.1534
      7 C3         -0.1622    1.2275    1.7785 C.ar      1 <0>        -0.0913
      8 C4          0.0273    2.5379    2.1800 C.ar      1 <0>        -0.0936
      9 C5         -0.7604    3.0784    3.1754 C.ar      1 <0>        -0.0746
     10 C6         -1.7431    2.2969    3.7849 C.ar      1 <0>        -0.0097
     11 C7         -1.9256    0.9740    3.3788 C.ar      1 <0>        -0.1140
     12 C8         -1.1346    0.4474    2.3786 C.ar      1 <0>        -0.0964
     13 C9         -2.5868    2.8676    4.8565 C.2       1 <0>         0.2348
     14 N2         -2.5015    4.1419    5.3356 N.2       1 <0>        -0.4468
     15 H1         -3.8081    1.2795    5.3339 H         1 <0>         0.4290
     16 C10        -3.4558    4.2705    6.3197 C.2       1 <0>         0.0603
     17 C11        -4.0915    3.0428    6.4101 C.2       1 <0>         0.0304
     18 N3         -3.5380    2.2281    5.4988 N.pl3     1 <0>        -0.5070
     19 C12        -5.1935    2.6956    7.3377 C.ar      1 <0>        -0.0354
     20 C13        -5.1454    3.1118    8.6678 C.ar      1 <0>        -0.0593
     21 C14        -6.1759    2.7898    9.5266 C.ar      1 <0>        -0.1456
     22 C15        -7.2528    2.0460    9.0719 C.ar      1 <0>         0.1097
     23 C16        -7.3026    1.6257    7.7525 C.ar      1 <0>        -0.1477
     24 C17        -6.2794    1.9468    6.8849 C.ar      1 <0>        -0.0823
     25 F1         -8.2574    1.7291    9.9179 F         1 <0>        -0.1342
     26 C18        -3.7387    5.4736    7.1246 C.ar      1 <0>         0.0412
     27 C19        -5.0523    5.9294    7.3021 C.ar      1 <0>        -0.1528
     28 C20        -5.2707    7.0556    8.0662 C.ar      1 <0>         0.1018
     29 N4         -4.2636    7.7069    8.6176 N.ar      1 <0>        -0.4828
     30 C21        -3.0114    7.3155    8.4719 C.ar      1 <0>         0.1010
     31 C22        -2.7010    6.1969    7.7288 C.ar      1 <0>        -0.1470
     32 H2          0.4283   -1.6720   -2.0730 H         1 <0>         0.1292
     33 H3          1.9255   -1.2940   -2.9584 H         1 <0>         0.1307
     34 H4          1.9325   -1.3451   -1.1792 H         1 <0>         0.1272
     35 H5         -0.8726    1.1359   -0.6545 H         1 <0>         0.4208
     36 H6          0.8177   -0.4256    0.8504 H         1 <0>         0.0760
     37 H7          1.6766    1.1262    0.7002 H         1 <0>         0.0936
     38 H8          0.7909    3.1403    1.7104 H         1 <0>         0.1358
     39 H9         -0.6141    4.1026    3.4851 H         1 <0>         0.1414
     40 H10        -2.6840    0.3640    3.8467 H         1 <0>         0.1202
     41 H11        -1.2745   -0.5761    2.0637 H         1 <0>         0.1320
     42 H12        -4.3044    3.6881    9.0242 H         1 <0>         0.1351
     43 H13        -6.1411    3.1146   10.5561 H         1 <0>         0.1427
     44 H14        -8.1438    1.0455    7.4029 H         1 <0>         0.1416
     45 H15        -6.3189    1.6186    5.8568 H         1 <0>         0.1313
     46 H16        -5.8808    5.4041    6.8505 H         1 <0>         0.1333
     47 H17        -6.2794    7.4127    8.2121 H         1 <0>         0.1579
     48 H18        -2.2191    7.8798    8.9411 H         1 <0>         0.1590
     49 H19        -1.6742    5.8823    7.6142 H         1 <0>         0.1381
@<TRIPOS>BOND
     1    1    2 1
     2    1   32 1
     3    1   33 1
     4    1   34 1
     5    2    3 2
     6    2    4 2
     7    2    5 1
     8    5    6 1
     9    5   35 1
    10    6    7 1
    11    6   36 1
    12    6   37 1
    13    7   12 ar
    14    7    8 ar
    15    8    9 ar
    16    8   38 1
    17    9   10 ar
    18    9   39 1
    19   10   11 ar
    20   10   13 1
    21   11   12 ar
    22   11   40 1
    23   12   41 1
    24   13   14 2
    25   13   18 1
    26   14   16 1
    27   15   18 1
    28   16   17 2
    29   16   26 1
    30   17   18 1
    31   17   19 1
    32   19   24 ar
    33   19   20 ar
    34   20   21 ar
    35   20   42 1
    36   21   22 ar
    37   21   43 1
    38   22   23 ar
    39   22   25 1
    40   23   24 ar
    41   23   44 1
    42   24   45 1
    43   26   31 ar
    44   26   27 ar
    45   27   28 ar
    46   27   46 1
    47   28   29 ar
    48   28   47 1
    49   29   30 ar
    50   30   31 ar
    51   30   48 1
    52   31   49 1
@<TRIPOS>MOLECULE
ZINC03815772
   50    53     0     0     0
SMALL
USER_CHARGES

@<TRIPOS>ATOM
      1 C1          1.3457   -1.0835   -2.0597 C.3       1 <0>        -0.6721
      2 S1          0.9310    0.6817   -2.0074 S.o2      1 <0>         2.6132
      3 O1          0.0200    1.0016   -3.0500 O.2       1 <0>        -0.9495
      4 O2          2.1067    1.4550   -1.8100 O.2       1 <0>        -0.9513
      5 N1          0.0601    0.8731   -0.6119 N.pl3     1 <0>        -1.1198
      6 C2          0.6984    0.6455    0.6869 C.3       1 <0>         0.1425
      7 C3         -0.1622    1.2275    1.7785 C.ar      1 <0>        -0.0450
      8 C4          0.0273    2.5379    2.1800 C.ar      1 <0>        -0.0872
      9 C5         -0.7604    3.0784    3.1754 C.ar      1 <0>        -0.0709
     10 C6         -1.7431    2.2969    3.7849 C.ar      1 <0>        -0.0866
     11 C7         -1.9256    0.9740    3.3788 C.ar      1 <0>        -0.0746
     12 C8         -1.1346    0.4474    2.3786 C.ar      1 <0>        -0.0910
     13 C9         -2.5868    2.8676    4.8565 C.cat     1 <0>         0.3900
     14 N2         -2.5015    4.1419    5.3356 N.pl3     1 <0>        -0.5070
     15 H1         -1.8652    4.8500    5.0295 H         1 <0>         0.4718
     16 C10        -3.4558    4.2705    6.3197 C.2       1 <0>         0.1177
     17 C11        -4.0979    3.0457    6.4035 C.2       1 <0>         0.1145
     18 C12        -5.2045    2.7006    7.3265 C.ar      1 <0>        -0.0852
     19 C13        -5.1614    3.1171    8.6567 C.ar      1 <0>        -0.0436
     20 C14        -6.1961    2.7970    9.5111 C.ar      1 <0>        -0.1464
     21 C15        -7.2723    2.0548    9.0520 C.ar      1 <0>         0.1430
     22 C16        -7.3171    1.6342    7.7325 C.ar      1 <0>        -0.1472
     23 C17        -6.2896    1.9534    6.8692 C.ar      1 <0>        -0.0617
     24 F1         -8.2810    1.7398    9.8937 F         1 <0>        -0.1207
     25 C18        -3.7387    5.4736    7.1246 C.ar      1 <0>        -0.0210
     26 C19        -5.0523    5.9294    7.3021 C.ar      1 <0>        -0.1298
     27 C20        -5.2707    7.0556    8.0662 C.ar      1 <0>         0.1172
     28 N3         -4.2636    7.7069    8.6176 N.ar      1 <0>        -0.4576
     29 C21        -3.0114    7.3155    8.4719 C.ar      1 <0>         0.1167
     30 C22        -2.7010    6.1969    7.7288 C.ar      1 <0>        -0.1482
     31 H2          0.4283   -1.6720   -2.0730 H         1 <0>         0.1308
     32 H3          1.9255   -1.2940   -2.9584 H         1 <0>         0.1349
     33 H4          1.9325   -1.3451   -1.1792 H         1 <0>         0.1277
     34 H5         -0.8726    1.1359   -0.6545 H         1 <0>         0.4205
     35 H6          0.8177   -0.4256    0.8504 H         1 <0>         0.0859
     36 H7          1.6766    1.1262    0.7002 H         1 <0>         0.1020
     37 H8          0.7909    3.1403    1.7104 H         1 <0>         0.1518
     38 H9         -0.6141    4.1026    3.4851 H         1 <0>         0.1353
     39 H10        -2.6840    0.3640    3.8467 H         1 <0>         0.1348
     40 H11        -1.2745   -0.5761    2.0637 H         1 <0>         0.1502
     41 H12        -4.3210    3.6921    9.0165 H         1 <0>         0.1398
     42 H13        -6.1653    3.1220   10.5406 H         1 <0>         0.1527
     43 H14        -8.1577    1.0553    7.3794 H         1 <0>         0.1527
     44 H15        -6.3252    1.6249    5.8410 H         1 <0>         0.1382
     45 H16        -5.8808    5.4041    6.8505 H         1 <0>         0.1458
     46 H17        -6.2794    7.4127    8.2121 H         1 <0>         0.1719
     47 H18        -2.2191    7.8798    8.9411 H         1 <0>         0.1714
     48 H19        -1.6742    5.8823    7.6142 H         1 <0>         0.1423
     49 N4         -3.5420    2.2292    5.4948 N.pl3     1 <0>        -0.4772
     50 H20        -3.8201    1.2556    5.3245 H         1 <0>         0.4780
@<TRIPOS>BOND
     1    1    2 1
     2    1   31 1
     3    1   32 1
     4    1   33 1
     5    2    3 2
     6    2    4 2
     7    2    5 1
     8    5    6 1
     9    5   34 1
    10    6    7 1
    11    6   35 1
    12    6   36 1
    13    7   12 ar
    14    7    8 ar
    15    8    9 ar
    16    8   37 1
    17    9   10 ar
    18    9   38 1
    19   10   11 ar
    20   10   13 1
    21   11   12 ar
    22   11   39 1
    23   12   40 1
    24   13   14 1
    25   13   49 2
    26   14   15 1
    27   14   16 1
    28   16   17 2
    29   16   25 1
    30   17   18 1
    31   17   49 1
    32   18   23 ar
    33   18   19 ar
    34   19   20 ar
    35   19   41 1
    36   20   21 ar
    37   20   42 1
    38   21   22 ar
    39   21   24 1
    40   22   23 ar
    41   22   43 1
    42   23   44 1
    43   25   30 ar
    44   25   26 ar
    45   26   27 ar
    46   26   45 1
    47   27   28 ar
    48   27   46 1
    49   28   29 ar
    50   29   30 ar
    51   29   47 1
    52   30   48 1
    53   49   50 1
@<TRIPOS>MOLECULE
ZINC03815772
   49    52     0     0     0
SMALL
USER_CHARGES

@<TRIPOS>ATOM
      1 C1          1.3457   -1.0835   -2.0597 C.3       1 <0>        -0.6740
      2 S1          0.9310    0.6817   -2.0074 S.o2      1 <0>         2.6145
      3 O1          0.0200    1.0016   -3.0500 O.2       1 <0>        -0.9561
      4 O2          2.1067    1.4550   -1.8100 O.2       1 <0>        -0.9545
      5 N1          0.0601    0.8731   -0.6119 N.pl3     1 <0>        -1.1168
      6 C2          0.6984    0.6455    0.6869 C.3       1 <0>         0.1534
      7 C3         -0.1622    1.2275    1.7785 C.ar      1 <0>        -0.0913
      8 C4          0.0273    2.5379    2.1800 C.ar      1 <0>        -0.0936
      9 C5         -0.7604    3.0784    3.1754 C.ar      1 <0>        -0.0746
     10 C6         -1.7431    2.2969    3.7849 C.ar      1 <0>        -0.0097
     11 C7         -1.9256    0.9740    3.3788 C.ar      1 <0>        -0.1140
     12 C8         -1.1346    0.4474    2.3786 C.ar      1 <0>        -0.0964
     13 C9         -2.5868    2.8676    4.8565 C.2       1 <0>         0.2348
     14 N2         -2.5015    4.1419    5.3356 N.2       1 <0>        -0.4468
     15 H1         -3.8081    1.2795    5.3339 H         1 <0>         0.4290
     16 C10        -3.4558    4.2705    6.3197 C.2       1 <0>         0.0603
     17 C11        -4.0915    3.0428    6.4101 C.2       1 <0>         0.0304
     18 N3         -3.5380    2.2281    5.4988 N.pl3     1 <0>        -0.5070
     19 C12        -5.1935    2.6956    7.3377 C.ar      1 <0>        -0.0354
     20 C13        -5.1454    3.1118    8.6678 C.ar      1 <0>        -0.0593
     21 C14        -6.1759    2.7898    9.5266 C.ar      1 <0>        -0.1456
     22 C15        -7.2528    2.0460    9.0719 C.ar      1 <0>         0.1097
     23 C16        -7.3026    1.6257    7.7525 C.ar      1 <0>        -0.1477
     24 C17        -6.2794    1.9468    6.8849 C.ar      1 <0>        -0.0823
     25 F1         -8.2574    1.7291    9.9179 F         1 <0>        -0.1342
     26 C18        -3.7387    5.4736    7.1246 C.ar      1 <0>         0.0412
     27 C19        -5.0523    5.9294    7.3021 C.ar      1 <0>        -0.1528
     28 C20        -5.2707    7.0556    8.0662 C.ar      1 <0>         0.1018
     29 N4         -4.2636    7.7069    8.6176 N.ar      1 <0>        -0.4828
     30 C21        -3.0114    7.3155    8.4719 C.ar      1 <0>         0.1010
     31 C22        -2.7010    6.1969    7.7288 C.ar      1 <0>        -0.1470
     32 H2          0.4283   -1.6720   -2.0730 H         1 <0>         0.1292
     33 H3          1.9255   -1.2940   -2.9584 H         1 <0>         0.1307
     34 H4          1.9325   -1.3451   -1.1792 H         1 <0>         0.1272
     35 H5         -0.8726    1.1359   -0.6545 H         1 <0>         0.4208
     36 H6          0.8177   -0.4256    0.8504 H         1 <0>         0.0760
     37 H7          1.6766    1.1262    0.7002 H         1 <0>         0.0936
     38 H8          0.7909    3.1403    1.7104 H         1 <0>         0.1358
     39 H9         -0.6141    4.1026    3.4851 H         1 <0>         0.1414
     40 H10        -2.6840    0.3640    3.8467 H         1 <0>         0.1202
     41 H11        -1.2745   -0.5761    2.0637 H         1 <0>         0.1320
     42 H12        -4.3044    3.6881    9.0242 H         1 <0>         0.1351
     43 H13        -6.1411    3.1146   10.5561 H         1 <0>         0.1427
     44 H14        -8.1438    1.0455    7.4029 H         1 <0>         0.1416
     45 H15        -6.3189    1.6186    5.8568 H         1 <0>         0.1313
     46 H16        -5.8808    5.4041    6.8505 H         1 <0>         0.1333
     47 H17        -6.2794    7.4127    8.2121 H         1 <0>         0.1579
     48 H18        -2.2191    7.8798    8.9411 H         1 <0>         0.1590
     49 H19        -1.6742    5.8823    7.6142 H         1 <0>         0.1381
@<TRIPOS>BOND
     1    1    2 1
     2    1   32 1
     3    1   33 1
     4    1   34 1
     5    2    3 2
     6    2    4 2
     7    2    5 1
     8    5    6 1
     9    5   35 1
    10    6    7 1
    11    6   36 1
    12    6   37 1
    13    7   12 ar
    14    7    8 ar
    15    8    9 ar
    16    8   38 1
    17    9   10 ar
    18    9   39 1
    19   10   11 ar
    20   10   13 1
    21   11   12 ar
    22   11   40 1
    23   12   41 1
    24   13   14 2
    25   13   18 1
    26   14   16 1
    27   15   18 1
    28   16   17 2
    29   16   26 1
    30   17   18 1
    31   17   19 1
    32   19   24 ar
    33   19   20 ar
    34   20   21 ar
    35   20   42 1
    36   21   22 ar
    37   21   43 1
    38   22   23 ar
    39   22   25 1
    40   23   24 ar
    41   23   44 1
    42   24   45 1
    43   26   31 ar
    44   26   27 ar
    45   27   28 ar
    46   27   46 1
    47   28   29 ar
    48   28   47 1
    49   29   30 ar
    50   30   31 ar
    51   30   48 1
    52   31   49 1
@<TRIPOS>MOLECULE
ZINC03815773
   43    45     0     0     0
SMALL
USER_CHARGES

@<TRIPOS>ATOM
      1 C1         -2.4175    1.5427   -6.9165 C.3       1 <0>        -0.6544
      2 S1         -2.0397    2.7859   -5.6507 S.o2      1 <0>         2.4200
      3 O1         -2.5352    4.0423   -6.0926 O.2       1 <0>        -0.9340
      4 O2         -0.6674    2.6686   -5.3009 O.2       1 <0>        -0.9331
      5 C2         -3.0402    2.2385   -4.2401 C.3       1 <0>        -0.6160
      6 C3         -2.8332    3.1968   -3.0655 C.3       1 <0>        -0.1280
      7 C4         -3.6770    2.7351   -1.8757 C.3       1 <0>         0.1089
      8 N1         -3.5714    3.7156   -0.7923 N.pl3     1 <0>        -0.4481
      9 C5         -4.4407    4.7146   -0.5305 C.2       1 <0>         0.2039
     10 N2         -4.0270    5.3935    0.5033 N.2       1 <0>        -0.4746
     11 C6         -2.8775    4.8637    0.9597 C.2       1 <0>         0.0740
     12 C7         -2.5684    3.7868    0.1481 C.2       1 <0>         0.0147
     13 C8         -1.3965    2.8976    0.2632 C.ar      1 <0>         0.0288
     14 C9         -1.5526    1.5078    0.3520 C.ar      1 <0>        -0.1690
     15 C10        -0.4302    0.7154    0.4628 C.ar      1 <0>         0.1059
     16 N3          0.7774    1.2482    0.4759 N.ar      1 <0>        -0.4786
     17 C11         0.9699    2.5512    0.3896 C.ar      1 <0>         0.1097
     18 C12        -0.0957    3.4187    0.2811 C.ar      1 <0>        -0.1451
     19 C13        -2.0887    5.3444    2.1180 C.ar      1 <0>        -0.0173
     20 C14        -1.4192    4.4336    2.9349 C.ar      1 <0>        -0.0735
     21 C15        -0.6824    4.8865    4.0096 C.ar      1 <0>        -0.1514
     22 C16        -0.6151    6.2430    4.2841 C.ar      1 <0>         0.1029
     23 C17        -1.2825    7.1515    3.4782 C.ar      1 <0>        -0.1527
     24 C18        -2.0179    6.7088    2.3983 C.ar      1 <0>        -0.0610
     25 F1          0.1031    6.6813    5.3411 F         1 <0>        -0.1381
     26 H1         -3.4865    1.5539   -7.1291 H         1 <0>         0.1298
     27 H2         -1.8635    1.7712   -7.8270 H         1 <0>         0.1337
     28 H3         -2.1295    0.5559   -6.5539 H         1 <0>         0.1297
     29 H4         -2.7360    1.2336   -3.9471 H         1 <0>         0.1375
     30 H5         -4.0930    2.2316   -4.5222 H         1 <0>         0.1391
     31 H6         -3.1374    4.2017   -3.3585 H         1 <0>         0.0927
     32 H7         -1.7804    3.2037   -2.7833 H         1 <0>         0.0886
     33 H8         -3.3150    1.7679   -1.5270 H         1 <0>         0.0981
     34 H9         -4.7189    2.6438   -2.1828 H         1 <0>         0.1071
     35 H10        -5.3387    4.9224   -1.0933 H         1 <0>         0.2132
     36 H11        -2.5374    1.0646    0.3378 H         1 <0>         0.1329
     37 H12        -0.5401   -0.3565    0.5355 H         1 <0>         0.1594
     38 H13         1.9762    2.9429    0.4040 H         1 <0>         0.1620
     39 H14         0.0693    4.4838    0.2113 H         1 <0>         0.1392
     40 H15        -1.4744    3.3758    2.7242 H         1 <0>         0.1278
     41 H16        -0.1606    4.1823    4.6406 H         1 <0>         0.1374
     42 H17        -1.2270    8.2078    3.6961 H         1 <0>         0.1392
     43 H18        -2.5382    7.4175    1.7712 H         1 <0>         0.1385
@<TRIPOS>BOND
     1    1    2 1
     2    1   26 1
     3    1   27 1
     4    1   28 1
     5    2    3 2
     6    2    4 2
     7    2    5 1
     8    5    6 1
     9    5   29 1
    10    5   30 1
    11    6    7 1
    12    6   31 1
    13    6   32 1
    14    7    8 1
    15    7   33 1
    16    7   34 1
    17    8   12 1
    18    8    9 1
    19    9   10 2
    20    9   35 1
    21   10   11 1
    22   11   12 2
    23   11   19 1
    24   12   13 1
    25   13   18 ar
    26   13   14 ar
    27   14   15 ar
    28   14   36 1
    29   15   16 ar
    30   15   37 1
    31   16   17 ar
    32   17   18 ar
    33   17   38 1
    34   18   39 1
    35   19   24 ar
    36   19   20 ar
    37   20   21 ar
    38   20   40 1
    39   21   22 ar
    40   21   41 1
    41   22   23 ar
    42   22   25 1
    43   23   24 ar
    44   23   42 1
    45   24   43 1
@<TRIPOS>MOLECULE
ZINC03815773
   44    46     0     0     0
SMALL
USER_CHARGES

@<TRIPOS>ATOM
      1 C1         -2.4175    1.5427   -6.9165 C.3       1 <0>        -0.6506
      2 S1         -2.0397    2.7859   -5.6507 S.o2      1 <0>         2.4209
      3 O1         -2.5352    4.0423   -6.0926 O.2       1 <0>        -0.9311
      4 O2         -0.6674    2.6686   -5.3009 O.2       1 <0>        -0.9289
      5 C2         -3.0402    2.2385   -4.2401 C.3       1 <0>        -0.6259
      6 C3         -2.8332    3.1968   -3.0655 C.3       1 <0>        -0.1317
      7 C4         -3.6770    2.7351   -1.8757 C.3       1 <0>         0.0958
      8 N1         -3.5714    3.7156   -0.7923 N.pl3     1 <0>        -0.4010
      9 C5         -4.4407    4.7146   -0.5305 C.cat     1 <0>         0.2996
     10 C6         -2.8775    4.8637    0.9597 C.2       1 <0>         0.1123
     11 C7         -2.5684    3.7868    0.1481 C.2       1 <0>         0.1008
     12 C8         -1.3965    2.8976    0.2632 C.ar      1 <0>        -0.0193
     13 C9         -1.5526    1.5078    0.3520 C.ar      1 <0>        -0.1534
     14 C10        -0.4302    0.7154    0.4628 C.ar      1 <0>         0.1168
     15 N2          0.7774    1.2482    0.4759 N.ar      1 <0>        -0.4569
     16 C11         0.9699    2.5512    0.3896 C.ar      1 <0>         0.1199
     17 C12        -0.0957    3.4187    0.2811 C.ar      1 <0>        -0.1315
     18 C13        -2.0887    5.3444    2.1180 C.ar      1 <0>        -0.0826
     19 C14        -1.4192    4.4336    2.9349 C.ar      1 <0>        -0.0457
     20 C15        -0.6824    4.8865    4.0096 C.ar      1 <0>        -0.1463
     21 C16        -0.6151    6.2430    4.2841 C.ar      1 <0>         0.1423
     22 C17        -1.2825    7.1515    3.4782 C.ar      1 <0>        -0.1468
     23 C18        -2.0179    6.7088    2.3983 C.ar      1 <0>        -0.0625
     24 F1          0.1031    6.6813    5.3411 F         1 <0>        -0.1208
     25 H1         -3.4865    1.5539   -7.1291 H         1 <0>         0.1320
     26 H2         -1.8635    1.7712   -7.8270 H         1 <0>         0.1385
     27 H3         -2.1295    0.5559   -6.5539 H         1 <0>         0.1322
     28 H4         -2.7360    1.2336   -3.9471 H         1 <0>         0.1432
     29 H5         -4.0930    2.2316   -4.5222 H         1 <0>         0.1442
     30 H6         -3.1374    4.2017   -3.3585 H         1 <0>         0.0986
     31 H7         -1.7804    3.2037   -2.7833 H         1 <0>         0.0973
     32 H8         -3.3150    1.7679   -1.5270 H         1 <0>         0.1258
     33 H9         -4.7189    2.6438   -2.1828 H         1 <0>         0.1328
     34 H10        -5.3387    4.9224   -1.0933 H         1 <0>         0.2664
     35 H11        -2.5374    1.0646    0.3378 H         1 <0>         0.1409
     36 H12        -0.5401   -0.3565    0.5355 H         1 <0>         0.1707
     37 H13         1.9762    2.9429    0.4040 H         1 <0>         0.1724
     38 H14         0.0693    4.4838    0.2113 H         1 <0>         0.1460
     39 H15        -1.4744    3.3758    2.7242 H         1 <0>         0.1386
     40 H16        -0.1606    4.1823    4.6406 H         1 <0>         0.1521
     41 H17        -1.2270    8.2078    3.6961 H         1 <0>         0.1526
     42 H18        -2.5382    7.4175    1.7712 H         1 <0>         0.1379
     43 N3         -4.0273    5.3940    0.5035 N.pl3     1 <0>        -0.4782
     44 H19        -4.5055    6.2080    0.9073 H         1 <0>         0.4824
@<TRIPOS>BOND
     1    1    2 1
     2    1   25 1
     3    1   26 1
     4    1   27 1
     5    2    3 2
     6    2    4 2
     7    2    5 1
     8    5    6 1
     9    5   28 1
    10    5   29 1
    11    6    7 1
    12    6   30 1
    13    6   31 1
    14    7    8 1
    15    7   32 1
    16    7   33 1
    17    8   11 1
    18    8    9 1
    19    9   34 1
    20    9   43 2
    21   10   11 2
    22   10   18 1
    23   10   43 1
    24   11   12 1
    25   12   17 ar
    26   12   13 ar
    27   13   14 ar
    28   13   35 1
    29   14   15 ar
    30   14   36 1
    31   15   16 ar
    32   16   17 ar
    33   16   37 1
    34   17   38 1
    35   18   23 ar
    36   18   19 ar
    37   19   20 ar
    38   19   39 1
    39   20   21 ar
    40   20   40 1
    41   21   22 ar
    42   21   24 1
    43   22   23 ar
    44   22   41 1
    45   23   42 1
    46   43   44 1
@<TRIPOS>MOLECULE
ZINC03815774
   43    46     0     0     0
SMALL
USER_CHARGES

@<TRIPOS>ATOM
      1 C1          9.7872   -1.8083    0.7035 C.3       1 <0>        -0.4979
      2 S1          9.5718   -0.0071    0.7104 S.o       1 <0>         1.3369
      3 O1          9.0418    0.4016    1.9639 O.2       1 <0>        -0.8469
      4 C2          8.2499    0.2685   -0.4216 C.ar      1 <0>        -0.4470
      5 C3          8.5201    0.4747   -1.7621 C.ar      1 <0>        -0.0315
      6 C4          7.4856    0.6918   -2.6533 C.ar      1 <0>        -0.1154
      7 C5          6.1781    0.6979   -2.2078 C.ar      1 <0>        -0.0718
      8 C6          5.9040    0.4964   -0.8619 C.ar      1 <0>         0.0978
      9 C7          6.9452    0.2787    0.0308 C.ar      1 <0>        -0.0486
     10 N1          4.5790    0.5069   -0.4060 N.pl3     1 <0>        -0.4043
     11 C8          3.9874   -0.4351    0.3727 C.2       1 <0>         0.2113
     12 N2          2.7488   -0.0953    0.5993 N.2       1 <0>        -0.4665
     13 C9          2.4798    1.0712   -0.0149 C.2       1 <0>         0.0776
     14 C10         3.6313    1.4733   -0.6682 C.2       1 <0>         0.0219
     15 C11         3.8099    2.6922   -1.4797 C.ar      1 <0>         0.0265
     16 C12         4.9469    3.4978   -1.3294 C.ar      1 <0>        -0.1593
     17 C13         5.0747    4.6252   -2.1119 C.ar      1 <0>         0.1073
     18 N3          4.1407    4.9544   -2.9847 N.ar      1 <0>        -0.4777
     19 C14         3.0523    4.2272   -3.1548 C.ar      1 <0>         0.1064
     20 C15         2.8445    3.0806   -2.4186 C.ar      1 <0>        -0.1465
     21 C16         1.1850    1.7907    0.0004 C.ar      1 <0>        -0.0201
     22 C17        -0.0126    1.0758    0.0080 C.ar      1 <0>        -0.0597
     23 C18        -1.2158    1.7504    0.0173 C.ar      1 <0>        -0.1528
     24 C19        -1.2359    3.1359    0.0293 C.ar      1 <0>         0.1052
     25 C20        -0.0488    3.8506    0.0222 C.ar      1 <0>        -0.1510
     26 C21         1.1595    3.1852    0.0076 C.ar      1 <0>        -0.0721
     27 F1         -2.4167    3.7920    0.0427 F         1 <0>        -0.1372
     28 H1         10.0340   -2.1408   -0.3048 H         1 <0>         0.1139
     29 H2         10.5945   -2.0803    1.3835 H         1 <0>         0.1107
     30 H3          8.8627   -2.2860    1.0275 H         1 <0>         0.0822
     31 H4          9.5413    0.4659   -2.1136 H         1 <0>         0.1487
     32 H5          7.6998    0.8522   -3.6997 H         1 <0>         0.1423
     33 H6          5.3701    0.8630   -2.9051 H         1 <0>         0.1309
     34 H7          6.7348    0.1172    1.0777 H         1 <0>         0.1365
     35 H8          4.4678   -1.3275    0.7459 H         1 <0>         0.2130
     36 H9          5.7128    3.2371   -0.6140 H         1 <0>         0.1300
     37 H10         5.9489    5.2505   -2.0063 H         1 <0>         0.1598
     38 H11         2.3142    4.5352   -3.8805 H         1 <0>         0.1620
     39 H12         1.9517    2.4904   -2.5633 H         1 <0>         0.1394
     40 H13         0.0021   -0.0041    0.0020 H         1 <0>         0.1388
     41 H14        -2.1437    1.1977    0.0187 H         1 <0>         0.1400
     42 H15        -0.0696    4.9304    0.0279 H         1 <0>         0.1387
     43 H16         2.0842    3.7431    0.0014 H         1 <0>         0.1288
@<TRIPOS>BOND
     1    1    2 1
     2    1   28 1
     3    1   29 1
     4    1   30 1
     5    2    3 2
     6    2    4 1
     7    4    9 ar
     8    4    5 ar
     9    5    6 ar
    10    5   31 1
    11    6    7 ar
    12    6   32 1
    13    7    8 ar
    14    7   33 1
    15    8    9 ar
    16    8   10 1
    17    9   34 1
    18   10   14 1
    19   10   11 1
    20   11   12 2
    21   11   35 1
    22   12   13 1
    23   13   14 2
    24   13   21 1
    25   14   15 1
    26   15   20 ar
    27   15   16 ar
    28   16   17 ar
    29   16   36 1
    30   17   18 ar
    31   17   37 1
    32   18   19 ar
    33   19   20 ar
    34   19   38 1
    35   20   39 1
    36   21   26 ar
    37   21   22 ar
    38   22   23 ar
    39   22   40 1
    40   23   24 ar
    41   23   41 1
    42   24   25 ar
    43   24   27 1
    44   25   26 ar
    45   25   42 1
    46   26   43 1
@<TRIPOS>MOLECULE
ZINC03815774
   44    47     0     0     0
SMALL
USER_CHARGES

@<TRIPOS>ATOM
      1 C1          9.7872   -1.8083    0.7035 C.3       1 <0>        -0.4967
      2 S1          9.5718   -0.0071    0.7104 S.o       1 <0>         1.3442
      3 O1          9.0418    0.4016    1.9639 O.2       1 <0>        -0.8418
      4 C2          8.2499    0.2685   -0.4216 C.ar      1 <0>        -0.4458
      5 C3          8.5201    0.4747   -1.7621 C.ar      1 <0>        -0.0027
      6 C4          7.4856    0.6918   -2.6533 C.ar      1 <0>        -0.1095
      7 C5          6.1781    0.6979   -2.2078 C.ar      1 <0>        -0.0537
      8 C6          5.9040    0.4964   -0.8619 C.ar      1 <0>         0.0468
      9 C7          6.9452    0.2787    0.0308 C.ar      1 <0>        -0.0333
     10 N1          4.5790    0.5069   -0.4060 N.pl3     1 <0>        -0.3447
     11 C8          3.9874   -0.4351    0.3727 C.cat     1 <0>         0.2988
     12 C9          2.4798    1.0712   -0.0149 C.2       1 <0>         0.1113
     13 C10         3.6313    1.4733   -0.6682 C.2       1 <0>         0.1064
     14 C11         3.8099    2.6922   -1.4797 C.ar      1 <0>        -0.0192
     15 C12         4.9469    3.4978   -1.3294 C.ar      1 <0>        -0.1418
     16 C13         5.0747    4.6252   -2.1119 C.ar      1 <0>         0.1171
     17 N2          4.1407    4.9544   -2.9847 N.ar      1 <0>        -0.4558
     18 C14         3.0523    4.2272   -3.1548 C.ar      1 <0>         0.1157
     19 C15         2.8445    3.0806   -2.4186 C.ar      1 <0>        -0.1337
     20 C16         1.1850    1.7907    0.0004 C.ar      1 <0>        -0.0830
     21 C17        -0.0126    1.0758    0.0080 C.ar      1 <0>        -0.0620
     22 C18        -1.2158    1.7504    0.0173 C.ar      1 <0>        -0.1468
     23 C19        -1.2359    3.1359    0.0293 C.ar      1 <0>         0.1433
     24 C20        -0.0488    3.8506    0.0222 C.ar      1 <0>        -0.1457
     25 C21         1.1595    3.1852    0.0076 C.ar      1 <0>        -0.0459
     26 F1         -2.4167    3.7920    0.0427 F         1 <0>        -0.1203
     27 H1         10.0340   -2.1408   -0.3048 H         1 <0>         0.1178
     28 H2         10.5945   -2.0803    1.3835 H         1 <0>         0.1168
     29 H3          8.8627   -2.2860    1.0275 H         1 <0>         0.0820
     30 H4          9.5413    0.4659   -2.1136 H         1 <0>         0.1606
     31 H5          7.6998    0.8522   -3.6997 H         1 <0>         0.1548
     32 H6          5.3701    0.8630   -2.9051 H         1 <0>         0.1394
     33 H7          6.7348    0.1172    1.0777 H         1 <0>         0.1425
     34 H8          4.4678   -1.3275    0.7459 H         1 <0>         0.2642
     35 H9          5.7128    3.2371   -0.6140 H         1 <0>         0.1381
     36 H10         5.9489    5.2505   -2.0063 H         1 <0>         0.1708
     37 H11         2.3142    4.5352   -3.8805 H         1 <0>         0.1721
     38 H12         1.9517    2.4904   -2.5633 H         1 <0>         0.1457
     39 H13         0.0021   -0.0041    0.0020 H         1 <0>         0.1380
     40 H14        -2.1437    1.1977    0.0187 H         1 <0>         0.1530
     41 H15        -0.0696    4.9304    0.0279 H         1 <0>         0.1531
     42 H16         2.0842    3.7431    0.0014 H         1 <0>         0.1393
     43 N3          2.7480   -0.0959    0.6000 N.pl3     1 <0>        -0.4732
     44 H17         2.0798   -0.6364    1.1617 H         1 <0>         0.4838
@<TRIPOS>BOND
     1    1    2 1
     2    1   27 1
     3    1   28 1
     4    1   29 1
     5    2    3 2
     6    2    4 1
     7    4    9 ar
     8    4    5 ar
     9    5    6 ar
    10    5   30 1
    11    6    7 ar
    12    6   31 1
    13    7    8 ar
    14    7   32 1
    15    8    9 ar
    16    8   10 1
    17    9   33 1
    18   10   13 1
    19   10   11 1
    20   11   34 1
    21   11   43 2
    22   12   13 2
    23   12   20 1
    24   12   43 1
    25   13   14 1
    26   14   19 ar
    27   14   15 ar
    28   15   16 ar
    29   15   35 1
    30   16   17 ar
    31   16   36 1
    32   17   18 ar
    33   18   19 ar
    34   18   37 1
    35   19   38 1
    36   20   25 ar
    37   20   21 ar
    38   21   22 ar
    39   21   39 1
    40   22   23 ar
    41   22   40 1
    42   23   24 ar
    43   23   26 1
    44   24   25 ar
    45   24   41 1
    46   25   42 1
    47   43   44 1
@<TRIPOS>MOLECULE
ZINC03815775
   42    45     0     0     0
SMALL
USER_CHARGES

@<TRIPOS>ATOM
      1 C1          2.3083   -0.3093   -0.0219 C.3       1 <0>         0.0259
      2 O1          2.3665    1.1185   -0.0147 O.3       1 <0>        -0.3170
      3 C2          1.1817    1.7842    0.0002 C.ar      1 <0>         0.1345
      4 C3         -0.0124    1.0758    0.0078 C.ar      1 <0>        -0.2006
      5 C4         -1.2201    1.7484    0.0171 C.ar      1 <0>        -0.0703
      6 C5         -1.2459    3.1285    0.0296 C.ar      1 <0>        -0.1278
      7 C6         -0.0512    3.8478    0.0222 C.ar      1 <0>         0.0174
      8 C7          1.1660    3.1688    0.0073 C.ar      1 <0>        -0.1489
      9 C8         -0.0757    5.3294    0.0304 C.2       1 <0>         0.0285
     10 C9         -1.0084    6.1346   -0.6030 C.2       1 <0>         0.0609
     11 N1         -0.6491    7.4345   -0.3283 N.2       1 <0>        -0.4501
     12 H1          1.5911    5.8222    1.1825 H         1 <0>         0.4294
     13 C10         0.4753    7.3871    0.4426 C.2       1 <0>         0.2393
     14 N2          0.8047    6.1320    0.6480 N.pl3     1 <0>        -0.5070
     15 C11         1.2069    8.5613    0.9641 C.ar      1 <0>        -0.0209
     16 C12         0.7612    9.8513    0.6718 C.ar      1 <0>        -0.0746
     17 C13         1.4457   10.9427    1.1654 C.ar      1 <0>        -0.1161
     18 C14         2.5779   10.7607    1.9395 C.ar      1 <0>        -0.1072
     19 C15         3.0277    9.4847    2.2290 C.ar      1 <0>        -0.1144
     20 C16         2.3495    8.3847    1.7459 C.ar      1 <0>        -0.1124
     21 C17        -2.1596    5.6874   -1.4095 C.ar      1 <0>         0.0427
     22 C18        -2.0179    4.6748   -2.3683 C.ar      1 <0>        -0.1509
     23 C19        -3.1217    4.2854   -3.0963 C.ar      1 <0>         0.1002
     24 N3         -4.2956    4.8584   -2.9071 N.ar      1 <0>        -0.4835
     25 C20        -4.4723    5.8183   -2.0184 C.ar      1 <0>         0.0998
     26 C21        -3.4249    6.2670   -1.2429 C.ar      1 <0>        -0.1467
     27 H2          3.3202   -0.7142   -0.0338 H         1 <0>         0.1027
     28 H3          1.7885   -0.6563    0.8712 H         1 <0>         0.0575
     29 H4          1.7716   -0.6466   -0.9087 H         1 <0>         0.0581
     30 H5          0.0023   -0.0041    0.0017 H         1 <0>         0.1324
     31 H6         -2.1459    1.1925    0.0189 H         1 <0>         0.1323
     32 H7         -2.1910    3.6509    0.0412 H         1 <0>         0.1277
     33 H8          2.0941    3.7211    0.0011 H         1 <0>         0.1275
     34 H9         -0.1199    9.9947    0.0639 H         1 <0>         0.1381
     35 H10         1.0994   11.9413    0.9437 H         1 <0>         0.1310
     36 H11         3.1127   11.6184    2.3198 H         1 <0>         0.1278
     37 H12         3.9120    9.3494    2.8341 H         1 <0>         0.1292
     38 H13         2.7016    7.3892    1.9726 H         1 <0>         0.1175
     39 H14        -1.0595    4.2044   -2.5315 H         1 <0>         0.1339
     40 H15        -3.0237    3.5035   -3.8349 H         1 <0>         0.1574
     41 H16        -5.4511    6.2585   -1.8976 H         1 <0>         0.1585
     42 H17        -3.5768    7.0528   -0.5177 H         1 <0>         0.1381
@<TRIPOS>BOND
     1    1    2 1
     2    1   27 1
     3    1   28 1
     4    1   29 1
     5    2    3 1
     6    3    8 ar
     7    3    4 ar
     8    4    5 ar
     9    4   30 1
    10    5    6 ar
    11    5   31 1
    12    6    7 ar
    13    6   32 1
    14    7    8 ar
    15    7    9 1
    16    8   33 1
    17    9   14 1
    18    9   10 2
    19   10   11 1
    20   10   21 1
    21   11   13 2
    22   12   14 1
    23   13   15 1
    24   13   14 1
    25   15   20 ar
    26   15   16 ar
    27   16   17 ar
    28   16   34 1
    29   17   18 ar
    30   17   35 1
    31   18   19 ar
    32   18   36 1
    33   19   20 ar
    34   19   37 1
    35   20   38 1
    36   21   26 ar
    37   21   22 ar
    38   22   23 ar
    39   22   39 1
    40   23   24 ar
    41   23   40 1
    42   24   25 ar
    43   25   26 ar
    44   25   41 1
    45   26   42 1
@<TRIPOS>MOLECULE
ZINC03815775
   42    45     0     0     0
SMALL
USER_CHARGES

@<TRIPOS>ATOM
      1 C1          2.3083   -0.3093   -0.0219 C.3       1 <0>         0.0259
      2 O1          2.3665    1.1185   -0.0147 O.3       1 <0>        -0.3170
      3 C2          1.1817    1.7842    0.0002 C.ar      1 <0>         0.1345
      4 C3         -0.0124    1.0758    0.0078 C.ar      1 <0>        -0.2006
      5 C4         -1.2201    1.7484    0.0171 C.ar      1 <0>        -0.0703
      6 C5         -1.2459    3.1285    0.0296 C.ar      1 <0>        -0.1278
      7 C6         -0.0512    3.8478    0.0222 C.ar      1 <0>         0.0174
      8 C7          1.1660    3.1688    0.0073 C.ar      1 <0>        -0.1489
      9 C8         -0.0757    5.3294    0.0304 C.2       1 <0>         0.0285
     10 C9         -1.0084    6.1346   -0.6030 C.2       1 <0>         0.0609
     11 N1         -0.6491    7.4345   -0.3283 N.2       1 <0>        -0.4501
     12 H1          1.5911    5.8222    1.1825 H         1 <0>         0.4294
     13 C10         0.4753    7.3871    0.4426 C.2       1 <0>         0.2393
     14 N2          0.8047    6.1320    0.6480 N.pl3     1 <0>        -0.5070
     15 C11         1.2069    8.5613    0.9641 C.ar      1 <0>        -0.0209
     16 C12         0.7612    9.8513    0.6718 C.ar      1 <0>        -0.0746
     17 C13         1.4457   10.9427    1.1654 C.ar      1 <0>        -0.1161
     18 C14         2.5779   10.7607    1.9395 C.ar      1 <0>        -0.1072
     19 C15         3.0277    9.4847    2.2290 C.ar      1 <0>        -0.1144
     20 C16         2.3495    8.3847    1.7459 C.ar      1 <0>        -0.1124
     21 C17        -2.1596    5.6874   -1.4095 C.ar      1 <0>         0.0427
     22 C18        -2.0179    4.6748   -2.3683 C.ar      1 <0>        -0.1509
     23 C19        -3.1217    4.2854   -3.0963 C.ar      1 <0>         0.1002
     24 N3         -4.2956    4.8584   -2.9071 N.ar      1 <0>        -0.4835
     25 C20        -4.4723    5.8183   -2.0184 C.ar      1 <0>         0.0998
     26 C21        -3.4249    6.2670   -1.2429 C.ar      1 <0>        -0.1467
     27 H2          3.3202   -0.7142   -0.0338 H         1 <0>         0.1027
     28 H3          1.7885   -0.6563    0.8712 H         1 <0>         0.0575
     29 H4          1.7716   -0.6466   -0.9087 H         1 <0>         0.0581
     30 H5          0.0023   -0.0041    0.0017 H         1 <0>         0.1324
     31 H6         -2.1459    1.1925    0.0189 H         1 <0>         0.1323
     32 H7         -2.1910    3.6509    0.0412 H         1 <0>         0.1277
     33 H8          2.0941    3.7211    0.0011 H         1 <0>         0.1275
     34 H9         -0.1199    9.9947    0.0639 H         1 <0>         0.1381
     35 H10         1.0994   11.9413    0.9437 H         1 <0>         0.1310
     36 H11         3.1127   11.6184    2.3198 H         1 <0>         0.1278
     37 H12         3.9120    9.3494    2.8341 H         1 <0>         0.1292
     38 H13         2.7016    7.3892    1.9726 H         1 <0>         0.1175
     39 H14        -1.0595    4.2044   -2.5315 H         1 <0>         0.1339
     40 H15        -3.0237    3.5035   -3.8349 H         1 <0>         0.1574
     41 H16        -5.4511    6.2585   -1.8976 H         1 <0>         0.1585
     42 H17        -3.5768    7.0528   -0.5177 H         1 <0>         0.1381
@<TRIPOS>BOND
     1    1    2 1
     2    1   27 1
     3    1   28 1
     4    1   29 1
     5    2    3 1
     6    3    8 ar
     7    3    4 ar
     8    4    5 ar
     9    4   30 1
    10    5    6 ar
    11    5   31 1
    12    6    7 ar
    13    6   32 1
    14    7    8 ar
    15    7    9 1
    16    8   33 1
    17    9   14 1
    18    9   10 2
    19   10   11 1
    20   10   21 1
    21   11   13 2
    22   12   14 1
    23   13   15 1
    24   13   14 1
    25   15   20 ar
    26   15   16 ar
    27   16   17 ar
    28   16   34 1
    29   17   18 ar
    30   17   35 1
    31   18   19 ar
    32   18   36 1
    33   19   20 ar
    34   19   37 1
    35   20   38 1
    36   21   26 ar
    37   21   22 ar
    38   22   23 ar
    39   22   39 1
    40   23   24 ar
    41   23   40 1
    42   24   25 ar
    43   25   26 ar
    44   25   41 1
    45   26   42 1
@<TRIPOS>MOLECULE
ZINC03815775
   43    46     0     0     0
SMALL
USER_CHARGES

@<TRIPOS>ATOM
      1 C1          2.3081   -0.3094   -0.0216 C.3       1 <0>         0.0219
      2 O1          2.3663    1.1184   -0.0145 O.3       1 <0>        -0.3120
      3 C2          1.1816    1.7842    0.0004 C.ar      1 <0>         0.1416
      4 C3         -0.0126    1.0758    0.0080 C.ar      1 <0>        -0.1751
      5 C4         -1.2202    1.7484    0.0173 C.ar      1 <0>        -0.0665
      6 C5         -1.2460    3.1285    0.0298 C.ar      1 <0>        -0.1160
      7 C6         -0.0513    3.8478    0.0223 C.ar      1 <0>        -0.0280
      8 C7          1.1659    3.1688    0.0075 C.ar      1 <0>        -0.1337
      9 C8         -0.0758    5.3294    0.0305 C.2       1 <0>         0.1140
     10 C9         -1.0084    6.1346   -0.6030 C.2       1 <0>         0.1164
     11 N1         -0.6491    7.4345   -0.3283 N.pl3     1 <0>        -0.5086
     12 H1         -1.1235    8.2592   -0.6362 H         1 <0>         0.4711
     13 C10         0.4753    7.3871    0.4426 C.cat     1 <0>         0.3931
     14 C11         1.2069    8.5613    0.9641 C.ar      1 <0>        -0.0944
     15 C12         0.7612    9.8513    0.6718 C.ar      1 <0>        -0.0724
     16 C13         1.4457   10.9427    1.1654 C.ar      1 <0>        -0.1062
     17 C14         2.5779   10.7607    1.9395 C.ar      1 <0>        -0.0639
     18 C15         3.0277    9.4847    2.2290 C.ar      1 <0>        -0.1054
     19 C16         2.3495    8.3847    1.7459 C.ar      1 <0>        -0.0748
     20 C17        -2.1596    5.6874   -1.4095 C.ar      1 <0>        -0.0184
     21 C18        -2.0179    4.6748   -2.3683 C.ar      1 <0>        -0.1282
     22 C19        -3.1217    4.2854   -3.0963 C.ar      1 <0>         0.1160
     23 N2         -4.2956    4.8584   -2.9071 N.ar      1 <0>        -0.4584
     24 C20        -4.4723    5.8183   -2.0184 C.ar      1 <0>         0.1157
     25 C21        -3.4249    6.2670   -1.2429 C.ar      1 <0>        -0.1488
     26 H2          3.3200   -0.7143   -0.0335 H         1 <0>         0.1101
     27 H3          1.7883   -0.6563    0.8715 H         1 <0>         0.0624
     28 H4          1.7714   -0.6467   -0.9084 H         1 <0>         0.0628
     29 H5          0.0021   -0.0041    0.0020 H         1 <0>         0.1428
     30 H6         -2.1461    1.1925    0.0191 H         1 <0>         0.1423
     31 H7         -2.1911    3.6510    0.0413 H         1 <0>         0.1320
     32 H8          2.0940    3.7210    0.0012 H         1 <0>         0.1342
     33 H9         -0.1199    9.9947    0.0639 H         1 <0>         0.1317
     34 H10         1.0994   11.9413    0.9437 H         1 <0>         0.1471
     35 H11         3.1127   11.6184    2.3198 H         1 <0>         0.1454
     36 H12         3.9120    9.3494    2.8341 H         1 <0>         0.1475
     37 H13         2.7016    7.3892    1.9726 H         1 <0>         0.1319
     38 H14        -1.0595    4.2044   -2.5315 H         1 <0>         0.1463
     39 H15        -3.0237    3.5035   -3.8349 H         1 <0>         0.1715
     40 H16        -5.4511    6.2585   -1.8976 H         1 <0>         0.1709
     41 H17        -3.5768    7.0528   -0.5177 H         1 <0>         0.1416
     42 N3          0.8052    6.1318    0.6483 N.pl3     1 <0>        -0.4779
     43 H18         1.6125    5.8138    1.1972 H         1 <0>         0.4784
@<TRIPOS>BOND
     1    1    2 1
     2    1   26 1
     3    1   27 1
     4    1   28 1
     5    2    3 1
     6    3    8 ar
     7    3    4 ar
     8    4    5 ar
     9    4   29 1
    10    5    6 ar
    11    5   30 1
    12    6    7 ar
    13    6   31 1
    14    7    8 ar
    15    7    9 1
    16    8   32 1
    17    9   10 2
    18    9   42 1
    19   10   11 1
    20   10   20 1
    21   11   12 1
    22   11   13 1
    23   13   14 1
    24   13   42 2
    25   14   19 ar
    26   14   15 ar
    27   15   16 ar
    28   15   33 1
    29   16   17 ar
    30   16   34 1
    31   17   18 ar
    32   17   35 1
    33   18   19 ar
    34   18   36 1
    35   19   37 1
    36   20   25 ar
    37   20   21 ar
    38   21   22 ar
    39   21   38 1
    40   22   23 ar
    41   22   39 1
    42   23   24 ar
    43   24   25 ar
    44   24   40 1
    45   25   41 1
    46   42   43 1
@<TRIPOS>MOLECULE
ZINC03815776
   43    46     0     0     0
SMALL
USER_CHARGES

@<TRIPOS>ATOM
      1 C1         -6.3225    6.5558   -2.0700 C.3       1 <0>        -0.5083
      2 S1         -6.8826    5.8097   -0.5143 S.o       1 <0>         1.2807
      3 O1         -8.2685    6.0685   -0.3368 O.2       1 <0>        -0.8305
      4 C2         -6.1041    6.7842    0.7304 C.ar      1 <0>        -0.4578
      5 C3         -6.7828    7.8367    1.3096 C.ar      1 <0>        -0.0450
      6 C4         -6.1710    8.6063    2.2828 C.ar      1 <0>        -0.1210
      7 C5         -4.8779    8.3231    2.6860 C.ar      1 <0>        -0.0761
      8 C6         -4.1902    7.2705    2.1188 C.ar      1 <0>        -0.0882
      9 C7         -4.8018    6.4899    1.1362 C.ar      1 <0>         0.0579
     10 C8         -4.0707    5.3601    0.5240 C.2       1 <0>         0.2206
     11 N1         -2.7994    4.9781    0.8379 N.2       1 <0>        -0.4306
     12 H1         -5.4545    4.6271   -0.8137 H         1 <0>         0.4014
     13 C9         -2.4937    3.8943    0.0459 C.2       1 <0>         0.0643
     14 C10        -3.6120    3.6540   -0.7359 C.2       1 <0>         0.0404
     15 N2         -4.5422    4.5642   -0.4091 N.pl3     1 <0>        -0.5084
     16 C11        -3.7570    2.5806   -1.7469 C.ar      1 <0>        -0.0393
     17 C12        -2.6626    2.1964   -2.5212 C.ar      1 <0>        -0.0591
     18 C13        -2.8016    1.1935   -3.4582 C.ar      1 <0>        -0.1444
     19 C14        -4.0285    0.5749   -3.6375 C.ar      1 <0>         0.1115
     20 C15        -5.1201    0.9570   -2.8743 C.ar      1 <0>        -0.1459
     21 C16        -4.9899    1.9554   -1.9314 C.ar      1 <0>        -0.0871
     22 F1         -4.1609   -0.4034   -4.5597 F         1 <0>        -0.1334
     23 C17        -1.2259    3.1407    0.0302 C.ar      1 <0>         0.0381
     24 C18        -1.2208    1.7390    0.0173 C.ar      1 <0>        -0.1531
     25 C19        -0.0126    1.0758    0.0080 C.ar      1 <0>         0.1017
     26 N3          1.1269    1.7422    0.0007 N.ar      1 <0>        -0.4820
     27 C20         1.1678    3.0615    0.0074 C.ar      1 <0>         0.1013
     28 C21         0.0079    3.8060    0.0220 C.ar      1 <0>        -0.1455
     29 H2         -5.2353    6.5033   -2.1274 H         1 <0>         0.1124
     30 H3         -6.7574    6.0141   -2.9100 H         1 <0>         0.1187
     31 H4         -6.6384    7.5984   -2.1073 H         1 <0>         0.0984
     32 H5         -7.7922    8.0630    0.9993 H         1 <0>         0.1362
     33 H6         -6.7048    9.4320    2.7296 H         1 <0>         0.1340
     34 H7         -4.4059    8.9278    3.4463 H         1 <0>         0.1385
     35 H8         -3.1811    7.0505    2.4344 H         1 <0>         0.1478
     36 H9         -1.7070    2.6807   -2.3849 H         1 <0>         0.1379
     37 H10        -1.9536    0.8924   -4.0553 H         1 <0>         0.1436
     38 H11        -6.0746    0.4724   -3.0181 H         1 <0>         0.1440
     39 H12        -5.8414    2.2527   -1.3373 H         1 <0>         0.1330
     40 H13        -2.1492    1.1872    0.0185 H         1 <0>         0.1366
     41 H14         0.0021   -0.0041    0.0020 H         1 <0>         0.1586
     42 H15         2.1234    3.5647    0.0009 H         1 <0>         0.1589
     43 H16         0.0490    4.8852    0.0274 H         1 <0>         0.1393
@<TRIPOS>BOND
     1    1    2 1
     2    1   29 1
     3    1   30 1
     4    1   31 1
     5    2    3 2
     6    2    4 1
     7    4    9 ar
     8    4    5 ar
     9    5    6 ar
    10    5   32 1
    11    6    7 ar
    12    6   33 1
    13    7    8 ar
    14    7   34 1
    15    8    9 ar
    16    8   35 1
    17    9   10 1
    18   10   11 2
    19   10   15 1
    20   11   13 1
    21   12   15 1
    22   13   14 2
    23   13   23 1
    24   14   15 1
    25   14   16 1
    26   16   21 ar
    27   16   17 ar
    28   17   18 ar
    29   17   36 1
    30   18   19 ar
    31   18   37 1
    32   19   20 ar
    33   19   22 1
    34   20   21 ar
    35   20   38 1
    36   21   39 1
    37   23   28 ar
    38   23   24 ar
    39   24   25 ar
    40   24   40 1
    41   25   26 ar
    42   25   41 1
    43   26   27 ar
    44   27   28 ar
    45   27   42 1
    46   28   43 1
@<TRIPOS>MOLECULE
ZINC03815776
   44    47     0     0     0
SMALL
USER_CHARGES

@<TRIPOS>ATOM
      1 C1         -6.3225    6.5558   -2.0700 C.3       1 <0>        -0.5137
      2 S1         -6.8826    5.8097   -0.5143 S.o       1 <0>         1.2727
      3 O1         -8.2685    6.0685   -0.3368 O.2       1 <0>        -0.7946
      4 C2         -6.1041    6.7842    0.7304 C.ar      1 <0>        -0.4317
      5 C3         -6.7828    7.8367    1.3096 C.ar      1 <0>        -0.0354
      6 C4         -6.1710    8.6063    2.2828 C.ar      1 <0>        -0.0773
      7 C5         -4.8779    8.3231    2.6860 C.ar      1 <0>        -0.0700
      8 C6         -4.1902    7.2705    2.1188 C.ar      1 <0>        -0.0797
      9 C7         -4.8018    6.4899    1.1362 C.ar      1 <0>        -0.0188
     10 C8         -4.0707    5.3601    0.5240 C.cat     1 <0>         0.3731
     11 N1         -2.7994    4.9781    0.8379 N.pl3     1 <0>        -0.4958
     12 H1         -2.2015    5.4052    1.5162 H         1 <0>         0.4740
     13 C9         -2.4937    3.8943    0.0459 C.2       1 <0>         0.1234
     14 C10        -3.6154    3.6482   -0.7292 C.2       1 <0>         0.1186
     15 C11        -3.7628    2.5707   -1.7355 C.ar      1 <0>        -0.0869
     16 C12        -2.6698    2.1820   -2.5095 C.ar      1 <0>        -0.0441
     17 C13        -2.8110    1.1753   -3.4421 C.ar      1 <0>        -0.1448
     18 C14        -4.0388    0.5573   -3.6172 C.ar      1 <0>         0.1449
     19 C15        -5.1290    0.9437   -2.8543 C.ar      1 <0>        -0.1452
     20 C16        -4.9966    1.9460   -1.9158 C.ar      1 <0>        -0.0671
     21 F1         -4.1734   -0.4248   -4.5351 F         1 <0>        -0.1197
     22 C17        -1.2259    3.1407    0.0302 C.ar      1 <0>        -0.0229
     23 C18        -1.2208    1.7390    0.0173 C.ar      1 <0>        -0.1306
     24 C19        -0.0126    1.0758    0.0080 C.ar      1 <0>         0.1174
     25 N2          1.1269    1.7422    0.0007 N.ar      1 <0>        -0.4568
     26 C20         1.1678    3.0615    0.0074 C.ar      1 <0>         0.1170
     27 C21         0.0079    3.8060    0.0220 C.ar      1 <0>        -0.1471
     28 H2         -5.2353    6.5033   -2.1274 H         1 <0>         0.1122
     29 H3         -6.7574    6.0141   -2.9100 H         1 <0>         0.1308
     30 H4         -6.6384    7.5984   -2.1073 H         1 <0>         0.1108
     31 H5         -7.7922    8.0630    0.9993 H         1 <0>         0.1527
     32 H6         -6.7048    9.4320    2.7296 H         1 <0>         0.1516
     33 H7         -4.4059    8.9278    3.4463 H         1 <0>         0.1546
     34 H8         -3.1811    7.0505    2.4344 H         1 <0>         0.1415
     35 H9         -1.7135    2.6659   -2.3765 H         1 <0>         0.1425
     36 H10        -1.9641    0.8708   -4.0390 H         1 <0>         0.1539
     37 H11        -6.0842    0.4595   -2.9948 H         1 <0>         0.1552
     38 H12        -5.8470    2.2467   -1.3219 H         1 <0>         0.1390
     39 H13        -2.1492    1.1872    0.0185 H         1 <0>         0.1491
     40 H14         0.0021   -0.0041    0.0020 H         1 <0>         0.1728
     41 H15         2.1234    3.5647    0.0009 H         1 <0>         0.1714
     42 H16         0.0490    4.8852    0.0274 H         1 <0>         0.1432
     43 N3         -4.5448    4.5607   -0.4054 N.pl3     1 <0>        -0.4788
     44 H17        -5.4820    4.6246   -0.8199 H         1 <0>         0.4384
@<TRIPOS>BOND
     1    1    2 1
     2    1   28 1
     3    1   29 1
     4    1   30 1
     5    2    3 2
     6    2    4 1
     7    4    9 ar
     8    4    5 ar
     9    5    6 ar
    10    5   31 1
    11    6    7 ar
    12    6   32 1
    13    7    8 ar
    14    7   33 1
    15    8    9 ar
    16    8   34 1
    17    9   10 1
    18   10   11 1
    19   10   43 2
    20   11   12 1
    21   11   13 1
    22   13   14 2
    23   13   22 1
    24   14   15 1
    25   14   43 1
    26   15   20 ar
    27   15   16 ar
    28   16   17 ar
    29   16   35 1
    30   17   18 ar
    31   17   36 1
    32   18   19 ar
    33   18   21 1
    34   19   20 ar
    35   19   37 1
    36   20   38 1
    37   22   27 ar
    38   22   23 ar
    39   23   24 ar
    40   23   39 1
    41   24   25 ar
    42   24   40 1
    43   25   26 ar
    44   26   27 ar
    45   26   41 1
    46   27   42 1
    47   43   44 1
@<TRIPOS>MOLECULE
ZINC03815776
   43    46     0     0     0
SMALL
USER_CHARGES

@<TRIPOS>ATOM
      1 C1         -6.3225    6.5558   -2.0700 C.3       1 <0>        -0.5083
      2 S1         -6.8826    5.8097   -0.5143 S.o       1 <0>         1.2807
      3 O1         -8.2685    6.0685   -0.3368 O.2       1 <0>        -0.8305
      4 C2         -6.1041    6.7842    0.7304 C.ar      1 <0>        -0.4578
      5 C3         -6.7828    7.8367    1.3096 C.ar      1 <0>        -0.0450
      6 C4         -6.1710    8.6063    2.2828 C.ar      1 <0>        -0.1210
      7 C5         -4.8779    8.3231    2.6860 C.ar      1 <0>        -0.0761
      8 C6         -4.1902    7.2705    2.1188 C.ar      1 <0>        -0.0882
      9 C7         -4.8018    6.4899    1.1362 C.ar      1 <0>         0.0579
     10 C8         -4.0707    5.3601    0.5240 C.2       1 <0>         0.2206
     11 N1         -2.7994    4.9781    0.8379 N.2       1 <0>        -0.4306
     12 H1         -5.4545    4.6271   -0.8137 H         1 <0>         0.4014
     13 C9         -2.4937    3.8943    0.0459 C.2       1 <0>         0.0643
     14 C10        -3.6120    3.6540   -0.7359 C.2       1 <0>         0.0404
     15 N2         -4.5422    4.5642   -0.4091 N.pl3     1 <0>        -0.5084
     16 C11        -3.7570    2.5806   -1.7469 C.ar      1 <0>        -0.0393
     17 C12        -2.6626    2.1964   -2.5212 C.ar      1 <0>        -0.0591
     18 C13        -2.8016    1.1935   -3.4582 C.ar      1 <0>        -0.1444
     19 C14        -4.0285    0.5749   -3.6375 C.ar      1 <0>         0.1115
     20 C15        -5.1201    0.9570   -2.8743 C.ar      1 <0>        -0.1459
     21 C16        -4.9899    1.9554   -1.9314 C.ar      1 <0>        -0.0871
     22 F1         -4.1609   -0.4034   -4.5597 F         1 <0>        -0.1334
     23 C17        -1.2259    3.1407    0.0302 C.ar      1 <0>         0.0381
     24 C18        -1.2208    1.7390    0.0173 C.ar      1 <0>        -0.1531
     25 C19        -0.0126    1.0758    0.0080 C.ar      1 <0>         0.1017
     26 N3          1.1269    1.7422    0.0007 N.ar      1 <0>        -0.4820
     27 C20         1.1678    3.0615    0.0074 C.ar      1 <0>         0.1013
     28 C21         0.0079    3.8060    0.0220 C.ar      1 <0>        -0.1455
     29 H2         -5.2353    6.5033   -2.1274 H         1 <0>         0.1124
     30 H3         -6.7574    6.0141   -2.9100 H         1 <0>         0.1187
     31 H4         -6.6384    7.5984   -2.1073 H         1 <0>         0.0984
     32 H5         -7.7922    8.0630    0.9993 H         1 <0>         0.1362
     33 H6         -6.7048    9.4320    2.7296 H         1 <0>         0.1340
     34 H7         -4.4059    8.9278    3.4463 H         1 <0>         0.1385
     35 H8         -3.1811    7.0505    2.4344 H         1 <0>         0.1478
     36 H9         -1.7070    2.6807   -2.3849 H         1 <0>         0.1379
     37 H10        -1.9536    0.8924   -4.0553 H         1 <0>         0.1436
     38 H11        -6.0746    0.4724   -3.0181 H         1 <0>         0.1440
     39 H12        -5.8414    2.2527   -1.3373 H         1 <0>         0.1330
     40 H13        -2.1492    1.1872    0.0185 H         1 <0>         0.1366
     41 H14         0.0021   -0.0041    0.0020 H         1 <0>         0.1586
     42 H15         2.1234    3.5647    0.0009 H         1 <0>         0.1589
     43 H16         0.0490    4.8852    0.0274 H         1 <0>         0.1393
@<TRIPOS>BOND
     1    1    2 1
     2    1   29 1
     3    1   30 1
     4    1   31 1
     5    2    3 2
     6    2    4 1
     7    4    9 ar
     8    4    5 ar
     9    5    6 ar
    10    5   32 1
    11    6    7 ar
    12    6   33 1
    13    7    8 ar
    14    7   34 1
    15    8    9 ar
    16    8   35 1
    17    9   10 1
    18   10   11 2
    19   10   15 1
    20   11   13 1
    21   12   15 1
    22   13   14 2
    23   13   23 1
    24   14   15 1
    25   14   16 1
    26   16   21 ar
    27   16   17 ar
    28   17   18 ar
    29   17   36 1
    30   18   19 ar
    31   18   37 1
    32   19   20 ar
    33   19   22 1
    34   20   21 ar
    35   20   38 1
    36   21   39 1
    37   23   28 ar
    38   23   24 ar
    39   24   25 ar
    40   24   40 1
    41   25   26 ar
    42   25   41 1
    43   26   27 ar
    44   27   28 ar
    45   27   42 1
    46   28   43 1
@<TRIPOS>MOLECULE
ZINC03815778
   49    52     0     0     0
SMALL
USER_CHARGES

@<TRIPOS>ATOM
      1 C1         -7.0428    6.0140   -0.7087 C.ar      1 <0>        -0.0816
      2 C2         -7.3298    4.9057    0.0660 C.ar      1 <0>        -0.1351
      3 C3         -6.4243    4.4740    1.0172 C.ar      1 <0>        -0.0549
      4 C4         -5.2319    5.1507    1.1936 C.ar      1 <0>        -0.4651
      5 C5         -4.9472    6.2621    0.4226 C.ar      1 <0>        -0.0426
      6 C6         -5.8503    6.6906   -0.5322 C.ar      1 <0>        -0.1362
      7 S1         -4.0780    4.6008    2.4064 S.o       1 <0>         1.3333
      8 O1         -4.8773    3.8970    3.3472 O.2       1 <0>        -0.8440
      9 C7         -3.0249    3.4270    1.5098 C.3       1 <0>        -0.4597
     10 C8         -1.9640    2.8658    2.4587 C.3       1 <0>        -0.1141
     11 C9         -1.0758    1.8758    1.7025 C.3       1 <0>         0.1057
     12 N1         -0.0874    1.3059    2.6215 N.pl3     1 <0>        -0.4452
     13 C10        -0.1863    0.1268    3.2713 C.2       1 <0>         0.2031
     14 N2          0.8786   -0.0606    4.0004 N.2       1 <0>        -0.4758
     15 C11         1.7085    0.9897    3.8641 C.2       1 <0>         0.0719
     16 C12         1.1111    1.8767    2.9864 C.2       1 <0>         0.0140
     17 C13         1.6498    3.1734    2.5328 C.ar      1 <0>         0.0319
     18 C14         1.7905    3.4573    1.1677 C.ar      1 <0>        -0.1673
     19 C15         2.2939    4.6833    0.7890 C.ar      1 <0>         0.1064
     20 N3          2.6501    5.5783    1.6915 N.ar      1 <0>        -0.4792
     21 C16         2.5391    5.3503    2.9869 C.ar      1 <0>         0.1082
     22 C17         2.0407    4.1535    3.4551 C.ar      1 <0>        -0.1461
     23 C18         3.0202    1.1640    4.5304 C.ar      1 <0>        -0.0160
     24 C19         4.0666    1.7974    3.8605 C.ar      1 <0>        -0.0737
     25 C20         5.2848    1.9611    4.4868 C.ar      1 <0>        -0.1513
     26 C21         5.4727    1.4884    5.7757 C.ar      1 <0>         0.1023
     27 C22         4.4376    0.8541    6.4437 C.ar      1 <0>        -0.1527
     28 C23         3.2143    0.6899    5.8276 C.ar      1 <0>        -0.0615
     29 F1          6.6692    1.6461    6.3829 F         1 <0>        -0.1383
     30 H1         -7.7503    6.3515   -1.4516 H         1 <0>         0.1277
     31 H2         -8.2615    4.3772   -0.0716 H         1 <0>         0.1261
     32 H3         -6.6487    3.6083    1.6227 H         1 <0>         0.1258
     33 H4         -4.0175    6.7934    0.5635 H         1 <0>         0.1375
     34 H5         -5.6263    7.5568   -1.1372 H         1 <0>         0.1311
     35 H6         -2.5364    3.9377    0.6799 H         1 <0>         0.1204
     36 H7         -3.6364    2.6109    1.1249 H         1 <0>         0.0920
     37 H8         -1.3526    3.6819    2.8437 H         1 <0>         0.0827
     38 H9         -2.4525    2.3551    3.2886 H         1 <0>         0.0783
     39 H10        -1.6917    1.0766    1.2902 H         1 <0>         0.1008
     40 H11        -0.5625    2.3937    0.8924 H         1 <0>         0.0972
     41 H12        -1.0183   -0.5578    3.1964 H         1 <0>         0.2106
     42 H13         1.5055    2.7281    0.4238 H         1 <0>         0.1324
     43 H14         2.4024    4.9132   -0.2606 H         1 <0>         0.1591
     44 H15         2.8434    6.1118    3.6896 H         1 <0>         0.1614
     45 H16         1.9524    3.9740    4.5164 H         1 <0>         0.1387
     46 H17         3.9224    2.1622    2.8542 H         1 <0>         0.1279
     47 H18         6.0947    2.4545    3.9701 H         1 <0>         0.1373
     48 H19         4.5889    0.4874    7.4482 H         1 <0>         0.1388
     49 H20         2.4083    0.1948    6.3488 H         1 <0>         0.1381
@<TRIPOS>BOND
     1    1    6 ar
     2    1    2 ar
     3    1   30 1
     4    2    3 ar
     5    2   31 1
     6    3    4 ar
     7    3   32 1
     8    4    5 ar
     9    4    7 1
    10    5    6 ar
    11    5   33 1
    12    6   34 1
    13    7    8 2
    14    7    9 1
    15    9   10 1
    16    9   35 1
    17    9   36 1
    18   10   11 1
    19   10   37 1
    20   10   38 1
    21   11   12 1
    22   11   39 1
    23   11   40 1
    24   12   16 1
    25   12   13 1
    26   13   14 2
    27   13   41 1
    28   14   15 1
    29   15   16 2
    30   15   23 1
    31   16   17 1
    32   17   22 ar
    33   17   18 ar
    34   18   19 ar
    35   18   42 1
    36   19   20 ar
    37   19   43 1
    38   20   21 ar
    39   21   22 ar
    40   21   44 1
    41   22   45 1
    42   23   28 ar
    43   23   24 ar
    44   24   25 ar
    45   24   46 1
    46   25   26 ar
    47   25   47 1
    48   26   27 ar
    49   26   29 1
    50   27   28 ar
    51   27   48 1
    52   28   49 1
@<TRIPOS>MOLECULE
ZINC03815778
   50    53     0     0     0
SMALL
USER_CHARGES

@<TRIPOS>ATOM
      1 C1         -7.0428    6.0140   -0.7087 C.ar      1 <0>        -0.0755
      2 C2         -7.3298    4.9057    0.0660 C.ar      1 <0>        -0.1333
      3 C3         -6.4243    4.4740    1.0172 C.ar      1 <0>        -0.0543
      4 C4         -5.2319    5.1507    1.1936 C.ar      1 <0>        -0.4701
      5 C5         -4.9472    6.2621    0.4226 C.ar      1 <0>        -0.0422
      6 C6         -5.8503    6.6906   -0.5322 C.ar      1 <0>        -0.1343
      7 S1         -4.0780    4.6008    2.4064 S.o       1 <0>         1.3411
      8 O1         -4.8773    3.8970    3.3472 O.2       1 <0>        -0.8414
      9 C7         -3.0249    3.4270    1.5098 C.3       1 <0>        -0.4705
     10 C8         -1.9640    2.8658    2.4587 C.3       1 <0>        -0.1172
     11 C9         -1.0758    1.8758    1.7025 C.3       1 <0>         0.0919
     12 N1         -0.0874    1.3059    2.6215 N.pl3     1 <0>        -0.3975
     13 C10        -0.1863    0.1268    3.2713 C.cat     1 <0>         0.2978
     14 C11         1.7085    0.9897    3.8641 C.2       1 <0>         0.1105
     15 C12         1.1111    1.8767    2.9864 C.2       1 <0>         0.1001
     16 C13         1.6498    3.1734    2.5328 C.ar      1 <0>        -0.0162
     17 C14         1.7905    3.4573    1.1677 C.ar      1 <0>        -0.1516
     18 C15         2.2939    4.6833    0.7890 C.ar      1 <0>         0.1173
     19 N2          2.6501    5.5783    1.6915 N.ar      1 <0>        -0.4576
     20 C16         2.5391    5.3503    2.9869 C.ar      1 <0>         0.1184
     21 C17         2.0407    4.1535    3.4551 C.ar      1 <0>        -0.1325
     22 C18         3.0202    1.1640    4.5304 C.ar      1 <0>        -0.0814
     23 C19         4.0666    1.7974    3.8605 C.ar      1 <0>        -0.0459
     24 C20         5.2848    1.9611    4.4868 C.ar      1 <0>        -0.1462
     25 C21         5.4727    1.4884    5.7757 C.ar      1 <0>         0.1417
     26 C22         4.4376    0.8541    6.4437 C.ar      1 <0>        -0.1468
     27 C23         3.2143    0.6899    5.8276 C.ar      1 <0>        -0.0630
     28 F1          6.6692    1.6461    6.3829 F         1 <0>        -0.1210
     29 H1         -7.7503    6.3515   -1.4516 H         1 <0>         0.1309
     30 H2         -8.2615    4.3772   -0.0716 H         1 <0>         0.1285
     31 H3         -6.6487    3.6083    1.6227 H         1 <0>         0.1258
     32 H4         -4.0175    6.7934    0.5635 H         1 <0>         0.1376
     33 H5         -5.6263    7.5568   -1.1372 H         1 <0>         0.1336
     34 H6         -2.5364    3.9377    0.6799 H         1 <0>         0.1251
     35 H7         -3.6364    2.6109    1.1249 H         1 <0>         0.0966
     36 H8         -1.3526    3.6819    2.8437 H         1 <0>         0.0912
     37 H9         -2.4525    2.3551    3.2886 H         1 <0>         0.0844
     38 H10        -1.6917    1.0766    1.2902 H         1 <0>         0.1263
     39 H11        -0.5625    2.3937    0.8924 H         1 <0>         0.1250
     40 H12        -1.0183   -0.5578    3.1964 H         1 <0>         0.2639
     41 H13         1.5055    2.7281    0.4238 H         1 <0>         0.1405
     42 H14         2.4024    4.9132   -0.2606 H         1 <0>         0.1703
     43 H15         2.8434    6.1118    3.6896 H         1 <0>         0.1717
     44 H16         1.9524    3.9740    4.5164 H         1 <0>         0.1454
     45 H17         3.9224    2.1622    2.8542 H         1 <0>         0.1386
     46 H18         6.0947    2.4545    3.9701 H         1 <0>         0.1520
     47 H19         4.5889    0.4874    7.4482 H         1 <0>         0.1522
     48 H20         2.4083    0.1948    6.3488 H         1 <0>         0.1375
     49 N3          0.8787   -0.0611    4.0007 N.pl3     1 <0>        -0.4791
     50 H21         1.0565   -0.8839    4.5886 H         1 <0>         0.4816
@<TRIPOS>BOND
     1    1    6 ar
     2    1    2 ar
     3    1   29 1
     4    2    3 ar
     5    2   30 1
     6    3    4 ar
     7    3   31 1
     8    4    5 ar
     9    4    7 1
    10    5    6 ar
    11    5   32 1
    12    6   33 1
    13    7    8 2
    14    7    9 1
    15    9   10 1
    16    9   34 1
    17    9   35 1
    18   10   11 1
    19   10   36 1
    20   10   37 1
    21   11   12 1
    22   11   38 1
    23   11   39 1
    24   12   15 1
    25   12   13 1
    26   13   40 1
    27   13   49 2
    28   14   15 2
    29   14   22 1
    30   14   49 1
    31   15   16 1
    32   16   21 ar
    33   16   17 ar
    34   17   18 ar
    35   17   41 1
    36   18   19 ar
    37   18   42 1
    38   19   20 ar
    39   20   21 ar
    40   20   43 1
    41   21   44 1
    42   22   27 ar
    43   22   23 ar
    44   23   24 ar
    45   23   45 1
    46   24   25 ar
    47   24   46 1
    48   25   26 ar
    49   25   28 1
    50   26   27 ar
    51   26   47 1
    52   27   48 1
    53   49   50 1
@<TRIPOS>MOLECULE
ZINC03815779
   46    49     0     0     0
SMALL
USER_CHARGES

@<TRIPOS>ATOM
      1 C1         -4.0471    2.9645   -0.3850 C.3       1 <0>         0.0561
      2 N1         -3.7415    1.5495   -0.1595 N.pl3     1 <0>        -0.4375
      3 C2         -4.6496    0.5496    0.1071 C.2       1 <0>         0.0266
      4 C3         -3.9151   -0.6160    0.2532 C.2       1 <0>         0.0788
      5 N2         -2.6215   -0.3093    0.0721 N.2       1 <0>        -0.4510
      6 C4         -2.5044    0.9753   -0.1776 C.2       1 <0>         0.2528
      7 C5         -1.2333    1.6865   -0.4315 C.ar      1 <0>         0.0186
      8 C6         -0.0462    1.2258    0.1399 C.ar      1 <0>        -0.0921
      9 C7          1.1374    1.8907   -0.1057 C.ar      1 <0>        -0.0390
     10 C8          1.1484    3.0151   -0.9118 C.ar      1 <0>        -0.4525
     11 C9         -0.0258    3.4803   -1.4767 C.ar      1 <0>        -0.0510
     12 C10        -1.2163    2.8250   -1.2388 C.ar      1 <0>        -0.1277
     13 S1          2.6644    3.8587   -1.2199 S.o       1 <0>         1.3320
     14 O1          2.2620    5.1843   -1.5363 O.2       1 <0>        -0.8524
     15 C11         3.3196    3.0543   -2.7080 C.3       1 <0>        -0.4973
     16 C12        -4.4604   -1.9602    0.5558 C.ar      1 <0>        -0.0193
     17 C13        -5.5633   -2.0942    1.3986 C.ar      1 <0>        -0.0724
     18 C14        -6.0702   -3.3473    1.6736 C.ar      1 <0>        -0.1510
     19 C15        -5.4789   -4.4726    1.1222 C.ar      1 <0>         0.1049
     20 C16        -4.3796   -4.3450    0.2883 C.ar      1 <0>        -0.1526
     21 C17        -3.8687   -3.0957    0.0032 C.ar      1 <0>        -0.0600
     22 F1         -5.9754   -5.6982    1.3988 F         1 <0>        -0.1373
     23 C18        -6.1132    0.6920    0.2203 C.ar      1 <0>         0.0281
     24 C19        -6.6804    1.7449    0.9516 C.ar      1 <0>        -0.1707
     25 C20        -8.0533    1.8416    1.0272 C.ar      1 <0>         0.1083
     26 N3         -8.8295    0.9556    0.4315 N.ar      1 <0>        -0.4793
     27 C21        -8.3375   -0.0533   -0.2630 C.ar      1 <0>         0.1089
     28 C22        -6.9763   -0.2249   -0.3955 C.ar      1 <0>        -0.1449
     29 H1         -4.1273    3.1528   -1.4556 H         1 <0>         0.0857
     30 H2         -4.9910    3.2140    0.0996 H         1 <0>         0.0958
     31 H3         -3.2502    3.5794    0.0334 H         1 <0>         0.0975
     32 H4         -0.0534    0.3482    0.7694 H         1 <0>         0.1422
     33 H5          2.0574    1.5329    0.3325 H         1 <0>         0.1464
     34 H6         -0.0105    4.3586   -2.1051 H         1 <0>         0.1321
     35 H7         -2.1322    3.1892   -1.6803 H         1 <0>         0.1266
     36 H8          2.6102    3.1722   -3.5270 H         1 <0>         0.0813
     37 H9          4.2695    3.5138   -2.9810 H         1 <0>         0.1087
     38 H10         3.4729    1.9934   -2.5099 H         1 <0>         0.1131
     39 H11        -6.0221   -1.2180    1.8324 H         1 <0>         0.1289
     40 H12        -6.9269   -3.4518    2.3229 H         1 <0>         0.1386
     41 H13        -3.9218   -5.2250   -0.1388 H         1 <0>         0.1397
     42 H14        -3.0116   -2.9972   -0.6465 H         1 <0>         0.1384
     43 H15        -6.0515    2.4710    1.4451 H         1 <0>         0.1344
     44 H16        -8.5001    2.6511    1.5854 H         1 <0>         0.1608
     45 H17        -9.0108   -0.7544   -0.7337 H         1 <0>         0.1625
     46 H18        -6.5808   -1.0528   -0.9652 H         1 <0>         0.1401
@<TRIPOS>BOND
     1    1    2 1
     2    1   29 1
     3    1   30 1
     4    1   31 1
     5    2    6 1
     6    2    3 1
     7    3    4 2
     8    3   23 1
     9    4    5 1
    10    4   16 1
    11    5    6 2
    12    6    7 1
    13    7   12 ar
    14    7    8 ar
    15    8    9 ar
    16    8   32 1
    17    9   10 ar
    18    9   33 1
    19   10   11 ar
    20   10   13 1
    21   11   12 ar
    22   11   34 1
    23   12   35 1
    24   13   14 2
    25   13   15 1
    26   15   36 1
    27   15   37 1
    28   15   38 1
    29   16   21 ar
    30   16   17 ar
    31   17   18 ar
    32   17   39 1
    33   18   19 ar
    34   18   40 1
    35   19   20 ar
    36   19   22 1
    37   20   21 ar
    38   20   41 1
    39   21   42 1
    40   23   28 ar
    41   23   24 ar
    42   24   25 ar
    43   24   43 1
    44   25   26 ar
    45   25   44 1
    46   26   27 ar
    47   27   28 ar
    48   27   45 1
    49   28   46 1
@<TRIPOS>MOLECULE
ZINC03815779
   47    50     0     0     0
SMALL
USER_CHARGES

@<TRIPOS>ATOM
      1 C1         -4.0471    2.9645   -0.3850 C.3       1 <0>         0.0417
      2 N1         -3.7415    1.5495   -0.1595 N.pl3     1 <0>        -0.3927
      3 C2         -4.6496    0.5496    0.1071 C.2       1 <0>         0.1061
      4 C3         -3.9151   -0.6160    0.2532 C.2       1 <0>         0.1176
      5 C4         -2.5044    0.9753   -0.1776 C.cat     1 <0>         0.3659
      6 C5         -1.2333    1.6865   -0.4315 C.ar      1 <0>        -0.0600
      7 C6         -0.0462    1.2258    0.1399 C.ar      1 <0>        -0.0921
      8 C7          1.1374    1.8907   -0.1057 C.ar      1 <0>        -0.0313
      9 C8          1.1484    3.0151   -0.9118 C.ar      1 <0>        -0.4204
     10 C9         -0.0258    3.4803   -1.4767 C.ar      1 <0>        -0.0465
     11 C10        -1.2163    2.8250   -1.2388 C.ar      1 <0>        -0.0936
     12 S1          2.6644    3.8587   -1.2199 S.o       1 <0>         1.3375
     13 O1          2.2620    5.1843   -1.5363 O.2       1 <0>        -0.8362
     14 C11         3.3196    3.0543   -2.7080 C.3       1 <0>        -0.4957
     15 C12        -4.4604   -1.9602    0.5558 C.ar      1 <0>        -0.0826
     16 C13        -5.5633   -2.0942    1.3986 C.ar      1 <0>        -0.0460
     17 C14        -6.0702   -3.3473    1.6736 C.ar      1 <0>        -0.1456
     18 C15        -5.4789   -4.4726    1.1222 C.ar      1 <0>         0.1429
     19 C16        -4.3796   -4.3450    0.2883 C.ar      1 <0>        -0.1463
     20 C17        -3.8687   -3.0957    0.0032 C.ar      1 <0>        -0.0627
     21 F1         -5.9754   -5.6982    1.3988 F         1 <0>        -0.1204
     22 C18        -6.1132    0.6920    0.2203 C.ar      1 <0>        -0.0154
     23 C19        -6.6804    1.7449    0.9516 C.ar      1 <0>        -0.1549
     24 C20        -8.0533    1.8416    1.0272 C.ar      1 <0>         0.1189
     25 N2         -8.8295    0.9556    0.4315 N.ar      1 <0>        -0.4580
     26 C21        -8.3375   -0.0533   -0.2630 C.ar      1 <0>         0.1188
     27 C22        -6.9763   -0.2249   -0.3955 C.ar      1 <0>        -0.1329
     28 H1         -4.1273    3.1528   -1.4556 H         1 <0>         0.1155
     29 H2         -4.9910    3.2140    0.0996 H         1 <0>         0.1227
     30 H3         -3.2502    3.5794    0.0334 H         1 <0>         0.1208
     31 H4         -0.0534    0.3482    0.7694 H         1 <0>         0.1409
     32 H5          2.0574    1.5329    0.3325 H         1 <0>         0.1610
     33 H6         -0.0105    4.3586   -2.1051 H         1 <0>         0.1475
     34 H7         -2.1322    3.1892   -1.6803 H         1 <0>         0.1384
     35 H8          2.6102    3.1722   -3.5270 H         1 <0>         0.0851
     36 H9          4.2695    3.5138   -2.9810 H         1 <0>         0.1170
     37 H10         3.4729    1.9934   -2.5099 H         1 <0>         0.1160
     38 H11        -6.0221   -1.2180    1.8324 H         1 <0>         0.1397
     39 H12        -6.9269   -3.4518    2.3229 H         1 <0>         0.1531
     40 H13        -3.9218   -5.2250   -0.1388 H         1 <0>         0.1530
     41 H14        -3.0116   -2.9972   -0.6465 H         1 <0>         0.1373
     42 H15        -6.0515    2.4710    1.4451 H         1 <0>         0.1420
     43 H16        -8.5001    2.6511    1.5854 H         1 <0>         0.1718
     44 H17        -9.0108   -0.7544   -0.7337 H         1 <0>         0.1725
     45 H18        -6.5808   -1.0528   -0.9652 H         1 <0>         0.1462
     46 N3         -2.6210   -0.3097    0.0721 N.pl3     1 <0>        -0.4746
     47 H19        -1.8419   -0.9767    0.1212 H         1 <0>         0.4781
@<TRIPOS>BOND
     1    1    2 1
     2    1   28 1
     3    1   29 1
     4    1   30 1
     5    2    5 1
     6    2    3 1
     7    3    4 2
     8    3   22 1
     9    4   15 1
    10    4   46 1
    11    5    6 1
    12    5   46 2
    13    6   11 ar
    14    6    7 ar
    15    7    8 ar
    16    7   31 1
    17    8    9 ar
    18    8   32 1
    19    9   10 ar
    20    9   12 1
    21   10   11 ar
    22   10   33 1
    23   11   34 1
    24   12   13 2
    25   12   14 1
    26   14   35 1
    27   14   36 1
    28   14   37 1
    29   15   20 ar
    30   15   16 ar
    31   16   17 ar
    32   16   38 1
    33   17   18 ar
    34   17   39 1
    35   18   19 ar
    36   18   21 1
    37   19   20 ar
    38   19   40 1
    39   20   41 1
    40   22   27 ar
    41   22   23 ar
    42   23   24 ar
    43   23   42 1
    44   24   25 ar
    45   24   43 1
    46   25   26 ar
    47   26   27 ar
    48   26   44 1
    49   27   45 1
    50   46   47 1
@<TRIPOS>MOLECULE
ZINC03815780
   42    45     0     0     0
SMALL
USER_CHARGES

@<TRIPOS>ATOM
      1 C1          2.1668   -0.6989   -1.4431 C.3       1 <0>        -0.1439
      2 S1          2.6536    1.0358   -1.2324 S.3       1 <0>        -0.1156
      3 C2          1.1384    1.8642   -0.8821 C.ar      1 <0>        -0.0781
      4 C3         -0.0512    1.1454   -0.8282 C.ar      1 <0>        -0.1225
      5 C4         -1.2426    1.7917   -0.5598 C.ar      1 <0>        -0.0938
      6 C5         -1.2588    3.1532   -0.3321 C.ar      1 <0>        -0.0793
      7 C6         -0.0706    3.8840   -0.3839 C.ar      1 <0>         0.0015
      8 C7          1.1315    3.2333   -0.6604 C.ar      1 <0>        -0.0938
      9 C8         -0.0864    5.3432   -0.1459 C.2       1 <0>         0.2372
     10 N1         -1.1955    6.0868    0.1323 N.2       1 <0>        -0.4462
     11 H1          1.9041    5.8327   -0.3447 H         1 <0>         0.4296
     12 C9         -0.7823    7.3912    0.2846 C.2       1 <0>         0.0596
     13 C10         0.5880    7.3932    0.0802 C.2       1 <0>         0.0311
     14 N2          0.9656    6.1299   -0.1687 N.pl3     1 <0>        -0.5066
     15 C11         1.4784    8.5761    0.1381 C.ar      1 <0>        -0.0354
     16 C12         1.0822    9.7791   -0.4455 C.ar      1 <0>        -0.0593
     17 C13         1.9123   10.8792   -0.3843 C.ar      1 <0>        -0.1457
     18 C14         3.1429   10.7871    0.2460 C.ar      1 <0>         0.1096
     19 C15         3.5433    9.5925    0.8226 C.ar      1 <0>        -0.1475
     20 C16         2.7178    8.4884    0.7714 C.ar      1 <0>        -0.0820
     21 F1          3.9551   11.8655    0.2980 F         1 <0>        -0.1343
     22 C17        -1.6313    8.5568    0.5946 C.ar      1 <0>         0.0420
     23 C18        -1.2702    9.4645    1.5999 C.ar      1 <0>        -0.1528
     24 C19        -2.0915   10.5421    1.8529 C.ar      1 <0>         0.1017
     25 N3         -3.2076   10.7191    1.1707 N.ar      1 <0>        -0.4830
     26 C20        -3.5876    9.8867    0.2193 C.ar      1 <0>         0.1007
     27 C21        -2.8251    8.7850   -0.1039 C.ar      1 <0>        -0.1470
     28 H2          1.7038   -1.0604   -0.5249 H         1 <0>         0.0863
     29 H3          1.4552   -0.7793   -2.2648 H         1 <0>         0.0863
     30 H4          3.0488   -1.2992   -1.6661 H         1 <0>         0.1122
     31 H5         -0.0442    0.0793   -1.0010 H         1 <0>         0.1286
     32 H6         -2.1638    1.2291   -0.5236 H         1 <0>         0.1357
     33 H7         -2.1917    3.6537   -0.1183 H         1 <0>         0.1421
     34 H8          2.0539    3.7937   -0.7020 H         1 <0>         0.1233
     35 H9          0.1251    9.8506   -0.9407 H         1 <0>         0.1351
     36 H10         1.6044   11.8125   -0.8321 H         1 <0>         0.1426
     37 H11         4.5033    9.5256    1.3128 H         1 <0>         0.1417
     38 H12         3.0311    7.5576    1.2205 H         1 <0>         0.1316
     39 H13        -0.3607    9.3236    2.1650 H         1 <0>         0.1335
     40 H14        -1.8203   11.2491    2.6229 H         1 <0>         0.1578
     41 H15        -4.5090   10.0713   -0.3130 H         1 <0>         0.1588
     42 H16        -3.1422    8.1082   -0.8835 H         1 <0>         0.1381
@<TRIPOS>BOND
     1    1    2 1
     2    1   28 1
     3    1   29 1
     4    1   30 1
     5    2    3 1
     6    3    8 ar
     7    3    4 ar
     8    4    5 ar
     9    4   31 1
    10    5    6 ar
    11    5   32 1
    12    6    7 ar
    13    6   33 1
    14    7    8 ar
    15    7    9 1
    16    8   34 1
    17    9   10 2
    18    9   14 1
    19   10   12 1
    20   11   14 1
    21   12   13 2
    22   12   22 1
    23   13   14 1
    24   13   15 1
    25   15   20 ar
    26   15   16 ar
    27   16   17 ar
    28   16   35 1
    29   17   18 ar
    30   17   36 1
    31   18   19 ar
    32   18   21 1
    33   19   20 ar
    34   19   37 1
    35   20   38 1
    36   22   27 ar
    37   22   23 ar
    38   23   24 ar
    39   23   39 1
    40   24   25 ar
    41   24   40 1
    42   25   26 ar
    43   26   27 ar
    44   26   41 1
    45   27   42 1
@<TRIPOS>MOLECULE
ZINC03815780
   43    46     0     0     0
SMALL
USER_CHARGES

@<TRIPOS>ATOM
      1 C1          2.1668   -0.6989   -1.4431 C.3       1 <0>        -0.1516
      2 S1          2.6536    1.0358   -1.2324 S.3       1 <0>        -0.0823
      3 C2          1.1384    1.8642   -0.8821 C.ar      1 <0>        -0.0753
      4 C3         -0.0512    1.1454   -0.8282 C.ar      1 <0>        -0.0880
      5 C4         -1.2426    1.7917   -0.5598 C.ar      1 <0>        -0.0806
      6 C5         -1.2588    3.1532   -0.3321 C.ar      1 <0>        -0.0835
      7 C6         -0.0706    3.8840   -0.3839 C.ar      1 <0>        -0.0688
      8 C7          1.1315    3.2333   -0.6604 C.ar      1 <0>        -0.0633
      9 C8         -0.0864    5.3432   -0.1459 C.cat     1 <0>         0.3921
     10 N1         -1.1955    6.0868    0.1323 N.pl3     1 <0>        -0.5059
     11 H1         -2.1331    5.7480    0.2109 H         1 <0>         0.4718
     12 C9         -0.7823    7.3912    0.2846 C.2       1 <0>         0.1170
     13 C10         0.5893    7.3917    0.0895 C.2       1 <0>         0.1151
     14 C11         1.4807    8.5736    0.1540 C.ar      1 <0>        -0.0851
     15 C12         1.0870    9.7791   -0.4261 C.ar      1 <0>        -0.0436
     16 C13         1.9180   10.8782   -0.3588 C.ar      1 <0>        -0.1465
     17 C14         3.1469   10.7826    0.2742 C.ar      1 <0>         0.1427
     18 C15         3.5448    9.5855    0.8474 C.ar      1 <0>        -0.1470
     19 C16         2.7184    8.4824    0.7900 C.ar      1 <0>        -0.0614
     20 F1          3.9600   11.8600    0.3322 F         1 <0>        -0.1209
     21 C17        -1.6313    8.5568    0.5946 C.ar      1 <0>        -0.0201
     22 C18        -1.2702    9.4645    1.5999 C.ar      1 <0>        -0.1298
     23 C19        -2.0915   10.5421    1.8529 C.ar      1 <0>         0.1170
     24 N2         -3.2076   10.7191    1.1707 N.ar      1 <0>        -0.4579
     25 C20        -3.5876    9.8867    0.2193 C.ar      1 <0>         0.1164
     26 C21        -2.8251    8.7850   -0.1039 C.ar      1 <0>        -0.1483
     27 H2          1.7038   -1.0604   -0.5249 H         1 <0>         0.0920
     28 H3          1.4552   -0.7793   -2.2648 H         1 <0>         0.0920
     29 H4          3.0488   -1.2992   -1.6661 H         1 <0>         0.1216
     30 H5         -0.0442    0.0793   -1.0010 H         1 <0>         0.1437
     31 H6         -2.1638    1.2291   -0.5236 H         1 <0>         0.1506
     32 H7         -2.1917    3.6537   -0.1183 H         1 <0>         0.1347
     33 H8          2.0539    3.7937   -0.7020 H         1 <0>         0.1362
     34 H9          0.1312    9.8533   -0.9235 H         1 <0>         0.1398
     35 H10         1.6121   11.8134   -0.8039 H         1 <0>         0.1526
     36 H11         4.5035    9.5159    1.3397 H         1 <0>         0.1527
     37 H12         3.0297    7.5496    1.2364 H         1 <0>         0.1386
     38 H13        -0.3607    9.3236    2.1650 H         1 <0>         0.1460
     39 H14        -1.8203   11.2491    2.6229 H         1 <0>         0.1718
     40 H15        -4.5090   10.0713   -0.3130 H         1 <0>         0.1712
     41 H16        -3.1422    8.1082   -0.8835 H         1 <0>         0.1424
     42 N3          0.9671    6.1288   -0.1633 N.pl3     1 <0>        -0.4767
     43 H17         1.9308    5.8234   -0.3427 H         1 <0>         0.4786
@<TRIPOS>BOND
     1    1    2 1
     2    1   27 1
     3    1   28 1
     4    1   29 1
     5    2    3 1
     6    3    8 ar
     7    3    4 ar
     8    4    5 ar
     9    4   30 1
    10    5    6 ar
    11    5   31 1
    12    6    7 ar
    13    6   32 1
    14    7    8 ar
    15    7    9 1
    16    8   33 1
    17    9   10 1
    18    9   42 2
    19   10   11 1
    20   10   12 1
    21   12   13 2
    22   12   21 1
    23   13   14 1
    24   13   42 1
    25   14   19 ar
    26   14   15 ar
    27   15   16 ar
    28   15   34 1
    29   16   17 ar
    30   16   35 1
    31   17   18 ar
    32   17   20 1
    33   18   19 ar
    34   18   36 1
    35   19   37 1
    36   21   26 ar
    37   21   22 ar
    38   22   23 ar
    39   22   38 1
    40   23   24 ar
    41   23   39 1
    42   24   25 ar
    43   25   26 ar
    44   25   40 1
    45   26   41 1
    46   42   43 1
@<TRIPOS>MOLECULE
ZINC03815780
   42    45     0     0     0
SMALL
USER_CHARGES

@<TRIPOS>ATOM
      1 C1          2.1668   -0.6989   -1.4431 C.3       1 <0>        -0.1439
      2 S1          2.6536    1.0358   -1.2324 S.3       1 <0>        -0.1156
      3 C2          1.1384    1.8642   -0.8821 C.ar      1 <0>        -0.0781
      4 C3         -0.0512    1.1454   -0.8282 C.ar      1 <0>        -0.1225
      5 C4         -1.2426    1.7917   -0.5598 C.ar      1 <0>        -0.0938
      6 C5         -1.2588    3.1532   -0.3321 C.ar      1 <0>        -0.0793
      7 C6         -0.0706    3.8840   -0.3839 C.ar      1 <0>         0.0015
      8 C7          1.1315    3.2333   -0.6604 C.ar      1 <0>        -0.0938
      9 C8         -0.0864    5.3432   -0.1459 C.2       1 <0>         0.2372
     10 N1         -1.1955    6.0868    0.1323 N.2       1 <0>        -0.4462
     11 H1          1.9041    5.8327   -0.3447 H         1 <0>         0.4296
     12 C9         -0.7823    7.3912    0.2846 C.2       1 <0>         0.0596
     13 C10         0.5880    7.3932    0.0802 C.2       1 <0>         0.0311
     14 N2          0.9656    6.1299   -0.1687 N.pl3     1 <0>        -0.5066
     15 C11         1.4784    8.5761    0.1381 C.ar      1 <0>        -0.0354
     16 C12         1.0822    9.7791   -0.4455 C.ar      1 <0>        -0.0593
     17 C13         1.9123   10.8792   -0.3843 C.ar      1 <0>        -0.1457
     18 C14         3.1429   10.7871    0.2460 C.ar      1 <0>         0.1096
     19 C15         3.5433    9.5925    0.8226 C.ar      1 <0>        -0.1475
     20 C16         2.7178    8.4884    0.7714 C.ar      1 <0>        -0.0820
     21 F1          3.9551   11.8655    0.2980 F         1 <0>        -0.1343
     22 C17        -1.6313    8.5568    0.5946 C.ar      1 <0>         0.0420
     23 C18        -1.2702    9.4645    1.5999 C.ar      1 <0>        -0.1528
     24 C19        -2.0915   10.5421    1.8529 C.ar      1 <0>         0.1017
     25 N3         -3.2076   10.7191    1.1707 N.ar      1 <0>        -0.4830
     26 C20        -3.5876    9.8867    0.2193 C.ar      1 <0>         0.1007
     27 C21        -2.8251    8.7850   -0.1039 C.ar      1 <0>        -0.1470
     28 H2          1.7038   -1.0604   -0.5249 H         1 <0>         0.0863
     29 H3          1.4552   -0.7793   -2.2648 H         1 <0>         0.0863
     30 H4          3.0488   -1.2992   -1.6661 H         1 <0>         0.1122
     31 H5         -0.0442    0.0793   -1.0010 H         1 <0>         0.1286
     32 H6         -2.1638    1.2291   -0.5236 H         1 <0>         0.1357
     33 H7         -2.1917    3.6537   -0.1183 H         1 <0>         0.1421
     34 H8          2.0539    3.7937   -0.7020 H         1 <0>         0.1233
     35 H9          0.1251    9.8506   -0.9407 H         1 <0>         0.1351
     36 H10         1.6044   11.8125   -0.8321 H         1 <0>         0.1426
     37 H11         4.5033    9.5256    1.3128 H         1 <0>         0.1417
     38 H12         3.0311    7.5576    1.2205 H         1 <0>         0.1316
     39 H13        -0.3607    9.3236    2.1650 H         1 <0>         0.1335
     40 H14        -1.8203   11.2491    2.6229 H         1 <0>         0.1578
     41 H15        -4.5090   10.0713   -0.3130 H         1 <0>         0.1588
     42 H16        -3.1422    8.1082   -0.8835 H         1 <0>         0.1381
@<TRIPOS>BOND
     1    1    2 1
     2    1   28 1
     3    1   29 1
     4    1   30 1
     5    2    3 1
     6    3    8 ar
     7    3    4 ar
     8    4    5 ar
     9    4   31 1
    10    5    6 ar
    11    5   32 1
    12    6    7 ar
    13    6   33 1
    14    7    8 ar
    15    7    9 1
    16    8   34 1
    17    9   10 2
    18    9   14 1
    19   10   12 1
    20   11   14 1
    21   12   13 2
    22   12   22 1
    23   13   14 1
    24   13   15 1
    25   15   20 ar
    26   15   16 ar
    27   16   17 ar
    28   16   35 1
    29   17   18 ar
    30   17   36 1
    31   18   19 ar
    32   18   21 1
    33   19   20 ar
    34   19   37 1
    35   20   38 1
    36   22   27 ar
    37   22   23 ar
    38   23   24 ar
    39   23   39 1
    40   24   25 ar
    41   24   40 1
    42   25   26 ar
    43   26   27 ar
    44   26   41 1
    45   27   42 1
@<TRIPOS>MOLECULE
ZINC03815782
   43    46     0     0     0
SMALL
USER_CHARGES

@<TRIPOS>ATOM
      1 C1         -4.1359    0.3891   -1.2180 C.3       1 <0>        -0.4958
      2 S1         -3.0214    1.4492   -2.1796 S.o       1 <0>         1.3137
      3 O1         -2.6051    0.7600   -3.3504 O.2       1 <0>        -0.8397
      4 C2         -1.5625    1.5375   -1.1955 C.ar      1 <0>        -0.4472
      5 C3         -0.5077    0.6808   -1.4443 C.ar      1 <0>        -0.0417
      6 C4          0.6377    0.7501   -0.6732 C.ar      1 <0>        -0.1157
      7 C5          0.7311    1.6763    0.3497 C.ar      1 <0>        -0.0703
      8 C6         -0.3222    2.5315    0.6070 C.ar      1 <0>        -0.1174
      9 C7         -1.4717    2.4682   -0.1695 C.ar      1 <0>         0.1789
     10 N1         -2.5400    3.3386    0.0854 N.pl3     1 <0>        -0.4174
     11 C8         -3.3275    3.3451    1.1915 C.2       1 <0>         0.2143
     12 N2         -4.2165    4.2935    1.0855 N.2       1 <0>        -0.4627
     13 C9         -4.0558    4.9357   -0.0859 C.2       1 <0>         0.0853
     14 C10        -2.9913    4.3443   -0.7426 C.2       1 <0>         0.0206
     15 C11        -2.4488    4.7147   -2.0636 C.ar      1 <0>         0.0175
     16 C12        -1.0897    5.0157   -2.2258 C.ar      1 <0>        -0.1564
     17 C13        -0.6252    5.3523   -3.4791 C.ar      1 <0>         0.1075
     18 N3         -1.4426    5.4028   -4.5143 N.ar      1 <0>        -0.4751
     19 C14        -2.7299    5.1320   -4.4051 C.ar      1 <0>         0.1094
     20 C15        -3.2793    4.7812   -3.1906 C.ar      1 <0>        -0.1545
     21 C16        -4.8702    6.0694   -0.5819 C.ar      1 <0>        -0.0218
     22 C17        -4.2745    7.0833   -1.3319 C.ar      1 <0>        -0.0706
     23 C18        -5.0381    8.1344   -1.7957 C.ar      1 <0>        -0.1516
     24 C19        -6.3926    8.1894   -1.5085 C.ar      1 <0>         0.1056
     25 C20        -6.9879    7.1872   -0.7593 C.ar      1 <0>        -0.1537
     26 C21        -6.2339    6.1293   -0.2955 C.ar      1 <0>        -0.0586
     27 F1         -7.1351    9.2238   -1.9601 F         1 <0>        -0.1379
     28 H1         -4.2952    0.8282   -0.2332 H         1 <0>         0.1105
     29 H2         -5.0911    0.3020   -1.7358 H         1 <0>         0.1139
     30 H3         -3.6911   -0.5998   -1.1073 H         1 <0>         0.0866
     31 H4         -0.5778   -0.0435   -2.2424 H         1 <0>         0.1387
     32 H5          1.4610    0.0793   -0.8696 H         1 <0>         0.1370
     33 H6          1.6270    1.7278    0.9506 H         1 <0>         0.1411
     34 H7         -0.2502    3.2518    1.4085 H         1 <0>         0.1402
     35 H8         -3.2312    2.6711    2.0298 H         1 <0>         0.2165
     36 H9         -0.4159    4.9808   -1.3824 H         1 <0>         0.1336
     37 H10         0.4212    5.5823   -3.6151 H         1 <0>         0.1596
     38 H11        -3.3616    5.1865   -5.2794 H         1 <0>         0.1642
     39 H12        -4.3334    4.5606   -3.1088 H         1 <0>         0.1456
     40 H13        -3.2181    7.0433   -1.5528 H         1 <0>         0.1301
     41 H14        -4.5787    8.9177   -2.3803 H         1 <0>         0.1378
     42 H15        -8.0438    7.2347   -0.5377 H         1 <0>         0.1393
     43 H16        -6.6987    5.3488    0.2887 H         1 <0>         0.1404
@<TRIPOS>BOND
     1    1    2 1
     2    1   28 1
     3    1   29 1
     4    1   30 1
     5    2    3 2
     6    2    4 1
     7    4    9 ar
     8    4    5 ar
     9    5    6 ar
    10    5   31 1
    11    6    7 ar
    12    6   32 1
    13    7    8 ar
    14    7   33 1
    15    8    9 ar
    16    8   34 1
    17    9   10 1
    18   10   14 1
    19   10   11 1
    20   11   12 2
    21   11   35 1
    22   12   13 1
    23   13   14 2
    24   13   21 1
    25   14   15 1
    26   15   20 ar
    27   15   16 ar
    28   16   17 ar
    29   16   36 1
    30   17   18 ar
    31   17   37 1
    32   18   19 ar
    33   19   20 ar
    34   19   38 1
    35   20   39 1
    36   21   26 ar
    37   21   22 ar
    38   22   23 ar
    39   22   40 1
    40   23   24 ar
    41   23   41 1
    42   24   25 ar
    43   24   27 1
    44   25   26 ar
    45   25   42 1
    46   26   43 1
@<TRIPOS>MOLECULE
ZINC03815782
   44    47     0     0     0
SMALL
USER_CHARGES

@<TRIPOS>ATOM
      1 C1         -4.1359    0.3891   -1.2180 C.3       1 <0>        -0.4996
      2 S1         -3.0214    1.4492   -2.1796 S.o       1 <0>         1.3009
      3 O1         -2.6051    0.7600   -3.3504 O.2       1 <0>        -0.8132
      4 C2         -1.5625    1.5375   -1.1955 C.ar      1 <0>        -0.4339
      5 C3         -0.5077    0.6808   -1.4443 C.ar      1 <0>        -0.0364
      6 C4          0.6377    0.7501   -0.6732 C.ar      1 <0>        -0.0865
      7 C5          0.7311    1.6763    0.3497 C.ar      1 <0>        -0.0675
      8 C6         -0.3222    2.5315    0.6070 C.ar      1 <0>        -0.0971
      9 C7         -1.4717    2.4682   -0.1695 C.ar      1 <0>         0.1259
     10 N1         -2.5400    3.3386    0.0854 N.pl3     1 <0>        -0.3586
     11 C8         -3.3275    3.3451    1.1915 C.cat     1 <0>         0.3051
     12 C9         -4.0558    4.9357   -0.0859 C.2       1 <0>         0.1197
     13 C10        -2.9913    4.3443   -0.7426 C.2       1 <0>         0.1029
     14 C11        -2.4488    4.7147   -2.0636 C.ar      1 <0>        -0.0285
     15 C12        -1.0897    5.0157   -2.2258 C.ar      1 <0>        -0.1381
     16 C13        -0.6252    5.3523   -3.4791 C.ar      1 <0>         0.1175
     17 N2         -1.4426    5.4028   -4.5143 N.ar      1 <0>        -0.4540
     18 C14        -2.7299    5.1320   -4.4051 C.ar      1 <0>         0.1187
     19 C15        -3.2793    4.7812   -3.1906 C.ar      1 <0>        -0.1434
     20 C16        -4.8702    6.0694   -0.5819 C.ar      1 <0>        -0.0844
     21 C17        -4.2745    7.0833   -1.3319 C.ar      1 <0>        -0.0435
     22 C18        -5.0381    8.1344   -1.7957 C.ar      1 <0>        -0.1462
     23 C19        -6.3926    8.1894   -1.5085 C.ar      1 <0>         0.1439
     24 C20        -6.9879    7.1872   -0.7593 C.ar      1 <0>        -0.1475
     25 C21        -6.2339    6.1293   -0.2955 C.ar      1 <0>        -0.0610
     26 F1         -7.1351    9.2238   -1.9601 F         1 <0>        -0.1208
     27 H1         -4.2952    0.8282   -0.2332 H         1 <0>         0.1032
     28 H2         -5.0911    0.3020   -1.7358 H         1 <0>         0.1204
     29 H3         -3.6911   -0.5998   -1.1073 H         1 <0>         0.0962
     30 H4         -0.5778   -0.0435   -2.2424 H         1 <0>         0.1497
     31 H5          1.4610    0.0793   -0.8696 H         1 <0>         0.1491
     32 H6          1.6270    1.7278    0.9506 H         1 <0>         0.1533
     33 H7         -0.2502    3.2518    1.4085 H         1 <0>         0.1474
     34 H8         -3.2312    2.6711    2.0298 H         1 <0>         0.2691
     35 H9         -0.4159    4.9808   -1.3824 H         1 <0>         0.1417
     36 H10         0.4212    5.5823   -3.6151 H         1 <0>         0.1706
     37 H11        -3.3616    5.1865   -5.2794 H         1 <0>         0.1743
     38 H12        -4.3334    4.5606   -3.1088 H         1 <0>         0.1523
     39 H13        -3.2181    7.0433   -1.5528 H         1 <0>         0.1407
     40 H14        -4.5787    8.9177   -2.3803 H         1 <0>         0.1523
     41 H15        -8.0438    7.2347   -0.5377 H         1 <0>         0.1525
     42 H16        -6.6987    5.3488    0.2887 H         1 <0>         0.1397
     43 N3         -4.2173    4.2937    1.0863 N.pl3     1 <0>        -0.4723
     44 H17        -4.9313    4.5164    1.7898 H         1 <0>         0.4857
@<TRIPOS>BOND
     1    1    2 1
     2    1   27 1
     3    1   28 1
     4    1   29 1
     5    2    3 2
     6    2    4 1
     7    4    9 ar
     8    4    5 ar
     9    5    6 ar
    10    5   30 1
    11    6    7 ar
    12    6   31 1
    13    7    8 ar
    14    7   32 1
    15    8    9 ar
    16    8   33 1
    17    9   10 1
    18   10   13 1
    19   10   11 1
    20   11   34 1
    21   11   43 2
    22   12   13 2
    23   12   20 1
    24   12   43 1
    25   13   14 1
    26   14   19 ar
    27   14   15 ar
    28   15   16 ar
    29   15   35 1
    30   16   17 ar
    31   16   36 1
    32   17   18 ar
    33   18   19 ar
    34   18   37 1
    35   19   38 1
    36   20   25 ar
    37   20   21 ar
    38   21   22 ar
    39   21   39 1
    40   22   23 ar
    41   22   40 1
    42   23   24 ar
    43   23   26 1
    44   24   25 ar
    45   24   41 1
    46   25   42 1
    47   43   44 1
@<TRIPOS>MOLECULE
ZINC03815783
   60    64     0     0     0
SMALL
USER_CHARGES

@<TRIPOS>ATOM
      1 C1        -11.2121    8.0163    6.8383 C.3       1 <0>        -0.0428
      2 C2         -9.5505    9.6774    6.2552 C.3       1 <0>         0.0082
      3 C3         -8.7884   10.3031    5.0848 C.3       1 <0>        -0.1384
      4 C4         -7.8905    9.2426    4.4415 C.3       1 <0>        -0.6045
      5 C5         -8.7521    8.0613    3.9870 C.3       1 <0>        -0.1384
      6 C6         -9.5164    7.5015    5.1890 C.3       1 <0>         0.0064
      7 S1         -7.0383    9.9580    3.0088 S.o2      1 <0>         2.5054
      8 O1         -6.0235   10.8542    3.4402 O.2       1 <0>        -0.9125
      9 O2         -7.9836   10.3537    2.0244 O.2       1 <0>        -0.9180
     10 C7         -6.1680    8.6103    2.2802 C.ar      1 <0>        -0.6656
     11 C8         -6.7803    7.8403    1.3074 C.ar      1 <0>        -0.0182
     12 C9         -6.1046    6.7834    0.7333 C.ar      1 <0>        -0.1363
     13 C10        -4.8002    6.4919    1.1355 C.ar      1 <0>         0.0589
     14 C11        -4.1902    7.2694    2.1212 C.ar      1 <0>        -0.0961
     15 C12        -4.8750    8.3270    2.6832 C.ar      1 <0>        -0.0140
     16 C13        -4.0701    5.3608    0.5245 C.2       1 <0>         0.2032
     17 N1         -2.7993    4.9779    0.8391 N.2       1 <0>        -0.4330
     18 H1         -5.4544    4.6276   -0.8124 H         1 <0>         0.4303
     19 C14        -2.4937    3.8943    0.0467 C.2       1 <0>         0.0649
     20 C15        -3.6124    3.6537   -0.7342 C.2       1 <0>         0.0513
     21 N2         -4.5421    4.5645   -0.4079 N.pl3     1 <0>        -0.5038
     22 C16        -3.7583    2.5794   -1.7443 C.ar      1 <0>        -0.0451
     23 C17        -2.6642    2.1936   -2.5182 C.ar      1 <0>        -0.0572
     24 C18        -2.8039    1.1899   -3.4543 C.ar      1 <0>        -0.1441
     25 C19        -4.0312    0.5721   -3.6329 C.ar      1 <0>         0.1163
     26 C20        -5.1225    0.9555   -2.8699 C.ar      1 <0>        -0.1480
     27 C21        -4.9916    1.9549   -1.9281 C.ar      1 <0>        -0.0821
     28 F1         -4.1644   -0.4071   -4.5542 F         1 <0>        -0.1307
     29 C22        -1.2259    3.1407    0.0306 C.ar      1 <0>         0.0327
     30 C23        -1.2208    1.7390    0.0173 C.ar      1 <0>        -0.1538
     31 C24        -0.0126    1.0758    0.0080 C.ar      1 <0>         0.1037
     32 N3          1.1269    1.7422    0.0007 N.ar      1 <0>        -0.4785
     33 C25         1.1678    3.0615    0.0074 C.ar      1 <0>         0.1040
     34 C26         0.0079    3.8060    0.0224 C.ar      1 <0>        -0.1456
     35 H2        -11.8800    8.7986    7.1989 H         1 <0>         0.1246
     36 H3        -11.8017    7.1854    6.4507 H         1 <0>         0.1239
     37 H4        -10.5862    7.6659    7.6590 H         1 <0>         0.1242
     38 H5         -8.8406    9.3173    6.9998 H         1 <0>         0.1364
     39 H6        -10.2014   10.4262    6.7065 H         1 <0>         0.1393
     40 H7         -8.1748   11.1271    5.4490 H         1 <0>         0.1297
     41 H8         -9.4975   10.6763    4.3459 H         1 <0>         0.1077
     42 H9         -7.1548    8.8986    5.1685 H         1 <0>         0.1602
     43 H10        -9.4611    8.3977    3.2306 H         1 <0>         0.1092
     44 H11        -8.1126    7.2846    3.5674 H         1 <0>         0.1265
     45 H12        -8.8067    7.1516    5.9386 H         1 <0>         0.1352
     46 H13       -10.1427    6.6700    4.8657 H         1 <0>         0.1372
     47 H14        -7.7897    8.0669    0.9971 H         1 <0>         0.1482
     48 H15        -6.5837    6.1831   -0.0260 H         1 <0>         0.1322
     49 H16        -3.1829    7.0461    2.4403 H         1 <0>         0.1532
     50 H17        -4.4026    8.9321    3.4428 H         1 <0>         0.1511
     51 H18        -1.7082    2.6775   -2.3826 H         1 <0>         0.1372
     52 H19        -1.9564    0.8882   -4.0518 H         1 <0>         0.1457
     53 H20        -6.0773    0.4715   -3.0133 H         1 <0>         0.1431
     54 H21        -5.8428    2.2533   -1.3341 H         1 <0>         0.1291
     55 H22        -2.1492    1.1872    0.0188 H         1 <0>         0.1345
     56 H23         0.0021   -0.0041    0.0020 H         1 <0>         0.1601
     57 H24         2.1234    3.5647    0.0006 H         1 <0>         0.1611
     58 H25         0.0490    4.8852    0.0282 H         1 <0>         0.1387
     59 N4        -10.3798    8.5640    5.7473 N.4       1 <0>        -0.3984
     60 H26       -10.9942    8.9182    5.0049 H         1 <0>         0.4315
@<TRIPOS>BOND
     1    1   35 1
     2    1   36 1
     3    1   37 1
     4    1   59 1
     5    2    3 1
     6    2   38 1
     7    2   39 1
     8    2   59 1
     9    3    4 1
    10    3   40 1
    11    3   41 1
    12    4    5 1
    13    4    7 1
    14    4   42 1
    15    5    6 1
    16    5   43 1
    17    5   44 1
    18    6   45 1
    19    6   46 1
    20    6   59 1
    21    7    8 2
    22    7    9 2
    23    7   10 1
    24   10   15 ar
    25   10   11 ar
    26   11   12 ar
    27   11   47 1
    28   12   13 ar
    29   12   48 1
    30   13   14 ar
    31   13   16 1
    32   14   15 ar
    33   14   49 1
    34   15   50 1
    35   16   17 2
    36   16   21 1
    37   17   19 1
    38   18   21 1
    39   19   20 2
    40   19   29 1
    41   20   21 1
    42   20   22 1
    43   22   27 ar
    44   22   23 ar
    45   23   24 ar
    46   23   51 1
    47   24   25 ar
    48   24   52 1
    49   25   26 ar
    50   25   28 1
    51   26   27 ar
    52   26   53 1
    53   27   54 1
    54   29   34 ar
    55   29   30 ar
    56   30   31 ar
    57   30   55 1
    58   31   32 ar
    59   31   56 1
    60   32   33 ar
    61   33   34 ar
    62   33   57 1
    63   34   58 1
    64   59   60 1
@<TRIPOS>MOLECULE
ZINC03815783
   61    65     0     0     0
SMALL
USER_CHARGES

@<TRIPOS>ATOM
      1 C1        -11.2121    8.0163    6.8383 C.3       1 <0>        -0.0439
      2 C2         -9.5505    9.6774    6.2552 C.3       1 <0>         0.0076
      3 C3         -8.7884   10.3031    5.0848 C.3       1 <0>        -0.1398
      4 C4         -7.8905    9.2426    4.4415 C.3       1 <0>        -0.6000
      5 C5         -8.7521    8.0613    3.9870 C.3       1 <0>        -0.1395
      6 C6         -9.5164    7.5015    5.1890 C.3       1 <0>         0.0063
      7 S1         -7.0383    9.9580    3.0088 S.o2      1 <0>         2.4992
      8 O1         -6.0235   10.8542    3.4402 O.2       1 <0>        -0.9004
      9 O2         -7.9836   10.3537    2.0244 O.2       1 <0>        -0.9043
     10 C7         -6.1680    8.6103    2.2802 C.ar      1 <0>        -0.6338
     11 C8         -6.7803    7.8403    1.3074 C.ar      1 <0>        -0.0118
     12 C9         -6.1046    6.7834    0.7333 C.ar      1 <0>        -0.0986
     13 C10        -4.8002    6.4919    1.1355 C.ar      1 <0>        -0.0192
     14 C11        -4.1902    7.2694    2.1212 C.ar      1 <0>        -0.0935
     15 C12        -4.8750    8.3270    2.6832 C.ar      1 <0>        -0.0057
     16 C13        -4.0701    5.3608    0.5245 C.cat     1 <0>         0.3558
     17 N1         -2.7993    4.9779    0.8391 N.pl3     1 <0>        -0.4964
     18 H1         -2.2016    5.4043    1.5180 H         1 <0>         0.4735
     19 C14        -2.4937    3.8943    0.0467 C.2       1 <0>         0.1289
     20 C15        -3.6155    3.6485   -0.7282 C.2       1 <0>         0.1264
     21 C16        -3.7635    2.5705   -1.7340 C.ar      1 <0>        -0.0926
     22 C17        -2.6707    2.1807   -2.5077 C.ar      1 <0>        -0.0427
     23 C18        -2.8124    1.1736   -3.4398 C.ar      1 <0>        -0.1447
     24 C19        -4.0405    0.5562   -3.6146 C.ar      1 <0>         0.1497
     25 C20        -5.1306    0.9436   -2.8519 C.ar      1 <0>        -0.1472
     26 C21        -4.9976    1.9464   -1.9140 C.ar      1 <0>        -0.0615
     27 F1         -4.1757   -0.4263   -4.5320 F         1 <0>        -0.1169
     28 C22        -1.2259    3.1407    0.0306 C.ar      1 <0>        -0.0297
     29 C23        -1.2208    1.7390    0.0173 C.ar      1 <0>        -0.1305
     30 C24        -0.0126    1.0758    0.0080 C.ar      1 <0>         0.1192
     31 N2          1.1269    1.7422    0.0007 N.ar      1 <0>        -0.4528
     32 C25         1.1678    3.0615    0.0074 C.ar      1 <0>         0.1197
     33 C26         0.0079    3.8060    0.0224 C.ar      1 <0>        -0.1467
     34 H2        -11.8800    8.7986    7.1989 H         1 <0>         0.1274
     35 H3        -11.8017    7.1854    6.4507 H         1 <0>         0.1254
     36 H4        -10.5862    7.6659    7.6590 H         1 <0>         0.1253
     37 H5         -8.8406    9.3173    6.9998 H         1 <0>         0.1376
     38 H6        -10.2014   10.4262    6.7065 H         1 <0>         0.1432
     39 H7         -8.1748   11.1271    5.4490 H         1 <0>         0.1325
     40 H8         -9.4975   10.6763    4.3459 H         1 <0>         0.1105
     41 H9         -7.1548    8.8986    5.1685 H         1 <0>         0.1622
     42 H10        -9.4611    8.3977    3.2306 H         1 <0>         0.1120
     43 H11        -8.1126    7.2846    3.5674 H         1 <0>         0.1211
     44 H12        -8.8067    7.1516    5.9386 H         1 <0>         0.1352
     45 H13       -10.1427    6.6700    4.8657 H         1 <0>         0.1386
     46 H14        -7.7897    8.0669    0.9971 H         1 <0>         0.1649
     47 H15        -6.5837    6.1831   -0.0260 H         1 <0>         0.1462
     48 H16        -3.1829    7.0461    2.4403 H         1 <0>         0.1468
     49 H17        -4.4026    8.9321    3.4428 H         1 <0>         0.1660
     50 H18        -1.7141    2.6642   -2.3750 H         1 <0>         0.1414
     51 H19        -1.9659    0.8688   -4.0371 H         1 <0>         0.1557
     52 H20        -6.0860    0.4599   -2.9923 H         1 <0>         0.1543
     53 H21        -5.8479    2.2479   -1.3202 H         1 <0>         0.1359
     54 H22        -2.1492    1.1872    0.0188 H         1 <0>         0.1473
     55 H23         0.0021   -0.0041    0.0020 H         1 <0>         0.1743
     56 H24         2.1234    3.5647    0.0006 H         1 <0>         0.1737
     57 H25         0.0490    4.8852    0.0282 H         1 <0>         0.1427
     58 N3        -10.3798    8.5640    5.7473 N.4       1 <0>        -0.3988
     59 H26       -10.9942    8.9182    5.0049 H         1 <0>         0.4328
     60 N4         -4.5445    4.5614   -0.4046 N.pl3     1 <0>        -0.4676
     61 H27        -5.4817    4.6255   -0.8191 H         1 <0>         0.4792
@<TRIPOS>BOND
     1    1   34 1
     2    1   35 1
     3    1   36 1
     4    1   58 1
     5    2    3 1
     6    2   37 1
     7    2   38 1
     8    2   58 1
     9    3    4 1
    10    3   39 1
    11    3   40 1
    12    4    5 1
    13    4    7 1
    14    4   41 1
    15    5    6 1
    16    5   42 1
    17    5   43 1
    18    6   44 1
    19    6   45 1
    20    6   58 1
    21    7    8 2
    22    7    9 2
    23    7   10 1
    24   10   15 ar
    25   10   11 ar
    26   11   12 ar
    27   11   46 1
    28   12   13 ar
    29   12   47 1
    30   13   14 ar
    31   13   16 1
    32   14   15 ar
    33   14   48 1
    34   15   49 1
    35   16   17 1
    36   16   60 2
    37   17   18 1
    38   17   19 1
    39   19   20 2
    40   19   28 1
    41   20   21 1
    42   20   60 1
    43   21   26 ar
    44   21   22 ar
    45   22   23 ar
    46   22   50 1
    47   23   24 ar
    48   23   51 1
    49   24   25 ar
    50   24   27 1
    51   25   26 ar
    52   25   52 1
    53   26   53 1
    54   28   33 ar
    55   28   29 ar
    56   29   30 ar
    57   29   54 1
    58   30   31 ar
    59   30   55 1
    60   31   32 ar
    61   32   33 ar
    62   32   56 1
    63   33   57 1
    64   58   59 1
    65   60   61 1
@<TRIPOS>MOLECULE
ZINC03815783
   60    64     0     0     0
SMALL
USER_CHARGES

@<TRIPOS>ATOM
      1 C1        -11.2121    8.0163    6.8383 C.3       1 <0>        -0.0428
      2 C2         -9.5505    9.6774    6.2552 C.3       1 <0>         0.0082
      3 C3         -8.7884   10.3031    5.0848 C.3       1 <0>        -0.1384
      4 C4         -7.8905    9.2426    4.4415 C.3       1 <0>        -0.6045
      5 C5         -8.7521    8.0613    3.9870 C.3       1 <0>        -0.1384
      6 C6         -9.5164    7.5015    5.1890 C.3       1 <0>         0.0064
      7 S1         -7.0383    9.9580    3.0088 S.o2      1 <0>         2.5054
      8 O1         -6.0235   10.8542    3.4402 O.2       1 <0>        -0.9125
      9 O2         -7.9836   10.3537    2.0244 O.2       1 <0>        -0.9180
     10 C7         -6.1680    8.6103    2.2802 C.ar      1 <0>        -0.6656
     11 C8         -6.7803    7.8403    1.3074 C.ar      1 <0>        -0.0182
     12 C9         -6.1046    6.7834    0.7333 C.ar      1 <0>        -0.1363
     13 C10        -4.8002    6.4919    1.1355 C.ar      1 <0>         0.0589
     14 C11        -4.1902    7.2694    2.1212 C.ar      1 <0>        -0.0961
     15 C12        -4.8750    8.3270    2.6832 C.ar      1 <0>        -0.0140
     16 C13        -4.0701    5.3608    0.5245 C.2       1 <0>         0.2032
     17 N1         -2.7993    4.9779    0.8391 N.2       1 <0>        -0.4330
     18 H1         -5.4544    4.6276   -0.8124 H         1 <0>         0.4303
     19 C14        -2.4937    3.8943    0.0467 C.2       1 <0>         0.0649
     20 C15        -3.6124    3.6537   -0.7342 C.2       1 <0>         0.0513
     21 N2         -4.5421    4.5645   -0.4079 N.pl3     1 <0>        -0.5038
     22 C16        -3.7583    2.5794   -1.7443 C.ar      1 <0>        -0.0451
     23 C17        -2.6642    2.1936   -2.5182 C.ar      1 <0>        -0.0572
     24 C18        -2.8039    1.1899   -3.4543 C.ar      1 <0>        -0.1441
     25 C19        -4.0312    0.5721   -3.6329 C.ar      1 <0>         0.1163
     26 C20        -5.1225    0.9555   -2.8699 C.ar      1 <0>        -0.1480
     27 C21        -4.9916    1.9549   -1.9281 C.ar      1 <0>        -0.0821
     28 F1         -4.1644   -0.4071   -4.5542 F         1 <0>        -0.1307
     29 C22        -1.2259    3.1407    0.0306 C.ar      1 <0>         0.0327
     30 C23        -1.2208    1.7390    0.0173 C.ar      1 <0>        -0.1538
     31 C24        -0.0126    1.0758    0.0080 C.ar      1 <0>         0.1037
     32 N3          1.1269    1.7422    0.0007 N.ar      1 <0>        -0.4785
     33 C25         1.1678    3.0615    0.0074 C.ar      1 <0>         0.1040
     34 C26         0.0079    3.8060    0.0224 C.ar      1 <0>        -0.1456
     35 H2        -11.8800    8.7986    7.1989 H         1 <0>         0.1246
     36 H3        -11.8017    7.1854    6.4507 H         1 <0>         0.1239
     37 H4        -10.5862    7.6659    7.6590 H         1 <0>         0.1242
     38 H5         -8.8406    9.3173    6.9998 H         1 <0>         0.1364
     39 H6        -10.2014   10.4262    6.7065 H         1 <0>         0.1393
     40 H7         -8.1748   11.1271    5.4490 H         1 <0>         0.1297
     41 H8         -9.4975   10.6763    4.3459 H         1 <0>         0.1077
     42 H9         -7.1548    8.8986    5.1685 H         1 <0>         0.1602
     43 H10        -9.4611    8.3977    3.2306 H         1 <0>         0.1092
     44 H11        -8.1126    7.2846    3.5674 H         1 <0>         0.1265
     45 H12        -8.8067    7.1516    5.9386 H         1 <0>         0.1352
     46 H13       -10.1427    6.6700    4.8657 H         1 <0>         0.1372
     47 H14        -7.7897    8.0669    0.9971 H         1 <0>         0.1482
     48 H15        -6.5837    6.1831   -0.0260 H         1 <0>         0.1322
     49 H16        -3.1829    7.0461    2.4403 H         1 <0>         0.1532
     50 H17        -4.4026    8.9321    3.4428 H         1 <0>         0.1511
     51 H18        -1.7082    2.6775   -2.3826 H         1 <0>         0.1372
     52 H19        -1.9564    0.8882   -4.0518 H         1 <0>         0.1457
     53 H20        -6.0773    0.4715   -3.0133 H         1 <0>         0.1431
     54 H21        -5.8428    2.2533   -1.3341 H         1 <0>         0.1291
     55 H22        -2.1492    1.1872    0.0188 H         1 <0>         0.1345
     56 H23         0.0021   -0.0041    0.0020 H         1 <0>         0.1601
     57 H24         2.1234    3.5647    0.0006 H         1 <0>         0.1611
     58 H25         0.0490    4.8852    0.0282 H         1 <0>         0.1387
     59 N4        -10.3798    8.5640    5.7473 N.4       1 <0>        -0.3984
     60 H26       -10.9942    8.9182    5.0049 H         1 <0>         0.4315
@<TRIPOS>BOND
     1    1   35 1
     2    1   36 1
     3    1   37 1
     4    1   59 1
     5    2    3 1
     6    2   38 1
     7    2   39 1
     8    2   59 1
     9    3    4 1
    10    3   40 1
    11    3   41 1
    12    4    5 1
    13    4    7 1
    14    4   42 1
    15    5    6 1
    16    5   43 1
    17    5   44 1
    18    6   45 1
    19    6   46 1
    20    6   59 1
    21    7    8 2
    22    7    9 2
    23    7   10 1
    24   10   15 ar
    25   10   11 ar
    26   11   12 ar
    27   11   47 1
    28   12   13 ar
    29   12   48 1
    30   13   14 ar
    31   13   16 1
    32   14   15 ar
    33   14   49 1
    34   15   50 1
    35   16   17 2
    36   16   21 1
    37   17   19 1
    38   18   21 1
    39   19   20 2
    40   19   29 1
    41   20   21 1
    42   20   22 1
    43   22   27 ar
    44   22   23 ar
    45   23   24 ar
    46   23   51 1
    47   24   25 ar
    48   24   52 1
    49   25   26 ar
    50   25   28 1
    51   26   27 ar
    52   26   53 1
    53   27   54 1
    54   29   34 ar
    55   29   30 ar
    56   30   31 ar
    57   30   55 1
    58   31   32 ar
    59   31   56 1
    60   32   33 ar
    61   33   34 ar
    62   33   57 1
    63   34   58 1
    64   59   60 1
@<TRIPOS>MOLECULE
ZINC03815784
   43    46     0     0     0
SMALL
USER_CHARGES

@<TRIPOS>ATOM
      1 C1         10.4865   -1.2760   -2.7671 C.3       1 <0>        -0.4980
      2 S1         10.1861    0.4602   -2.3359 S.o       1 <0>         1.3352
      3 O1         10.1482    1.2429   -3.5212 O.2       1 <0>        -0.8472
      4 C2          8.5202    0.4748   -1.7621 C.ar      1 <0>        -0.4556
      5 C3          8.2503    0.2695   -0.4215 C.ar      1 <0>        -0.0239
      6 C4          6.9455    0.2799    0.0312 C.ar      1 <0>        -0.1300
      7 C5          5.9042    0.4968   -0.8613 C.ar      1 <0>         0.1475
      8 C6          6.1780    0.6973   -2.2076 C.ar      1 <0>        -0.1201
      9 C7          7.4853    0.6910   -2.6534 C.ar      1 <0>        -0.0353
     10 N1          4.5792    0.5074   -0.4051 N.pl3     1 <0>        -0.4096
     11 C8          3.9879   -0.4343    0.3740 C.2       1 <0>         0.2135
     12 N2          2.7506   -0.0921    0.6045 N.2       1 <0>        -0.4665
     13 C9          2.4798    1.0712   -0.0149 C.2       1 <0>         0.0790
     14 C10         3.6329    1.4761   -0.6636 C.2       1 <0>         0.0240
     15 C11         3.8135    2.6985   -1.4694 C.ar      1 <0>         0.0244
     16 C12         4.9496    3.5039   -1.3121 C.ar      1 <0>        -0.1584
     17 C13         5.0794    4.6347   -2.0895 C.ar      1 <0>         0.1075
     18 N3          4.1481    4.9671   -2.9639 N.ar      1 <0>        -0.4772
     19 C14         3.0605    4.2402   -3.1404 C.ar      1 <0>         0.1063
     20 C15         2.8509    3.0904   -2.4097 C.ar      1 <0>        -0.1469
     21 C16         1.1850    1.7907    0.0004 C.ar      1 <0>        -0.0212
     22 C17        -0.0126    1.0758    0.0080 C.ar      1 <0>        -0.0595
     23 C18        -1.2158    1.7504    0.0173 C.ar      1 <0>        -0.1531
     24 C19        -1.2359    3.1359    0.0293 C.ar      1 <0>         0.1056
     25 C20        -0.0488    3.8506    0.0222 C.ar      1 <0>        -0.1513
     26 C21         1.1595    3.1852    0.0076 C.ar      1 <0>        -0.0718
     27 F1         -2.4167    3.7920    0.0427 F         1 <0>        -0.1371
     28 H1          9.7831   -1.5853   -3.5403 H         1 <0>         0.0821
     29 H2         11.5056   -1.3873   -3.1375 H         1 <0>         0.1102
     30 H3         10.3513   -1.8987   -1.8828 H         1 <0>         0.1133
     31 H4          9.0607    0.1012    0.2723 H         1 <0>         0.1516
     32 H5          6.7353    0.1198    1.0784 H         1 <0>         0.1411
     33 H6          5.3699    0.8619   -2.9049 H         1 <0>         0.1293
     34 H7          7.6992    0.8514   -3.6998 H         1 <0>         0.1368
     35 H8          4.4688   -1.3257    0.7487 H         1 <0>         0.2167
     36 H9          5.7135    3.2406   -0.5955 H         1 <0>         0.1306
     37 H10         5.9530    5.2599   -1.9784 H         1 <0>         0.1597
     38 H11         2.3246    4.5509   -3.8672 H         1 <0>         0.1620
     39 H12         1.9589    2.5004   -2.5598 H         1 <0>         0.1393
     40 H13         0.0021   -0.0041    0.0020 H         1 <0>         0.1389
     41 H14        -2.1437    1.1977    0.0187 H         1 <0>         0.1400
     42 H15        -0.0696    4.9304    0.0279 H         1 <0>         0.1388
     43 H16         2.0842    3.7431    0.0014 H         1 <0>         0.1291
@<TRIPOS>BOND
     1    1    2 1
     2    1   28 1
     3    1   29 1
     4    1   30 1
     5    2    3 2
     6    2    4 1
     7    4    9 ar
     8    4    5 ar
     9    5    6 ar
    10    5   31 1
    11    6    7 ar
    12    6   32 1
    13    7    8 ar
    14    7   10 1
    15    8    9 ar
    16    8   33 1
    17    9   34 1
    18   10   14 1
    19   10   11 1
    20   11   12 2
    21   11   35 1
    22   12   13 1
    23   13   14 2
    24   13   21 1
    25   14   15 1
    26   15   20 ar
    27   15   16 ar
    28   16   17 ar
    29   16   36 1
    30   17   18 ar
    31   17   37 1
    32   18   19 ar
    33   19   20 ar
    34   19   38 1
    35   20   39 1
    36   21   26 ar
    37   21   22 ar
    38   22   23 ar
    39   22   40 1
    40   23   24 ar
    41   23   41 1
    42   24   25 ar
    43   24   27 1
    44   25   26 ar
    45   25   42 1
    46   26   43 1
@<TRIPOS>MOLECULE
ZINC03815784
   44    47     0     0     0
SMALL
USER_CHARGES

@<TRIPOS>ATOM
      1 C1         10.4865   -1.2760   -2.7671 C.3       1 <0>        -0.4964
      2 S1         10.1861    0.4602   -2.3359 S.o       1 <0>         1.3388
      3 O1         10.1482    1.2429   -3.5212 O.2       1 <0>        -0.8353
      4 C2          8.5202    0.4748   -1.7621 C.ar      1 <0>        -0.4297
      5 C3          8.2503    0.2695   -0.4215 C.ar      1 <0>        -0.0221
      6 C4          6.9455    0.2799    0.0312 C.ar      1 <0>        -0.1111
      7 C5          5.9042    0.4968   -0.8613 C.ar      1 <0>         0.0919
      8 C6          6.1780    0.6973   -2.2076 C.ar      1 <0>        -0.0974
      9 C7          7.4853    0.6910   -2.6534 C.ar      1 <0>        -0.0346
     10 N1          4.5792    0.5074   -0.4051 N.pl3     1 <0>        -0.3504
     11 C8          3.9879   -0.4343    0.3740 C.cat     1 <0>         0.3026
     12 C9          2.4798    1.0712   -0.0149 C.2       1 <0>         0.1115
     13 C10         3.6329    1.4761   -0.6636 C.2       1 <0>         0.1089
     14 C11         3.8135    2.6985   -1.4694 C.ar      1 <0>        -0.0211
     15 C12         4.9496    3.5039   -1.3121 C.ar      1 <0>        -0.1410
     16 C13         5.0794    4.6347   -2.0895 C.ar      1 <0>         0.1172
     17 N2          4.1481    4.9671   -2.9639 N.ar      1 <0>        -0.4554
     18 C14         3.0605    4.2402   -3.1404 C.ar      1 <0>         0.1156
     19 C15         2.8509    3.0904   -2.4097 C.ar      1 <0>        -0.1343
     20 C16         1.1850    1.7907    0.0004 C.ar      1 <0>        -0.0838
     21 C17        -0.0126    1.0758    0.0080 C.ar      1 <0>        -0.0618
     22 C18        -1.2158    1.7504    0.0173 C.ar      1 <0>        -0.1470
     23 C19        -1.2359    3.1359    0.0293 C.ar      1 <0>         0.1435
     24 C20        -0.0488    3.8506    0.0222 C.ar      1 <0>        -0.1459
     25 C21         1.1595    3.1852    0.0076 C.ar      1 <0>        -0.0458
     26 F1         -2.4167    3.7920    0.0427 F         1 <0>        -0.1202
     27 H1          9.7831   -1.5853   -3.5403 H         1 <0>         0.0849
     28 H2         11.5056   -1.3873   -3.1375 H         1 <0>         0.1168
     29 H3         10.3513   -1.8987   -1.8828 H         1 <0>         0.1159
     30 H4          9.0607    0.1012    0.2723 H         1 <0>         0.1632
     31 H5          6.7353    0.1198    1.0784 H         1 <0>         0.1478
     32 H6          5.3699    0.8619   -2.9049 H         1 <0>         0.1376
     33 H7          7.6992    0.8514   -3.6998 H         1 <0>         0.1483
     34 H8          4.4688   -1.3257    0.7487 H         1 <0>         0.2676
     35 H9          5.7135    3.2406   -0.5955 H         1 <0>         0.1388
     36 H10         5.9530    5.2599   -1.9784 H         1 <0>         0.1706
     37 H11         2.3246    4.5509   -3.8672 H         1 <0>         0.1720
     38 H12         1.9589    2.5004   -2.5598 H         1 <0>         0.1457
     39 H13         0.0021   -0.0041    0.0020 H         1 <0>         0.1381
     40 H14        -2.1437    1.1977    0.0187 H         1 <0>         0.1530
     41 H15        -0.0696    4.9304    0.0279 H         1 <0>         0.1530
     42 H16         2.0842    3.7431    0.0014 H         1 <0>         0.1395
     43 N3          2.7498   -0.0927    0.6052 N.pl3     1 <0>        -0.4735
     44 H17         2.0837   -0.6295    1.1730 H         1 <0>         0.4842
@<TRIPOS>BOND
     1    1    2 1
     2    1   27 1
     3    1   28 1
     4    1   29 1
     5    2    3 2
     6    2    4 1
     7    4    9 ar
     8    4    5 ar
     9    5    6 ar
    10    5   30 1
    11    6    7 ar
    12    6   31 1
    13    7    8 ar
    14    7   10 1
    15    8    9 ar
    16    8   32 1
    17    9   33 1
    18   10   13 1
    19   10   11 1
    20   11   34 1
    21   11   43 2
    22   12   13 2
    23   12   20 1
    24   12   43 1
    25   13   14 1
    26   14   19 ar
    27   14   15 ar
    28   15   16 ar
    29   15   35 1
    30   16   17 ar
    31   16   36 1
    32   17   18 ar
    33   18   19 ar
    34   18   37 1
    35   19   38 1
    36   20   25 ar
    37   20   21 ar
    38   21   22 ar
    39   21   39 1
    40   22   23 ar
    41   22   40 1
    42   23   24 ar
    43   23   26 1
    44   24   25 ar
    45   24   41 1
    46   25   42 1
    47   43   44 1
@<TRIPOS>MOLECULE
ZINC03815785
   48    51     0     0     0
SMALL
USER_CHARGES

@<TRIPOS>ATOM
      1 C1         -1.4171    4.4697    2.9210 C.ar      1 <0>        -0.0694
      2 C2         -0.6807    4.9332    3.9915 C.ar      1 <0>        -0.1525
      3 C3         -0.6270    6.2910    4.2624 C.ar      1 <0>         0.1155
      4 C4         -1.3076    7.1902    3.4572 C.ar      1 <0>        -0.1525
      5 C5         -2.0428    6.7369    2.3816 C.ar      1 <0>        -0.0558
      6 C6         -2.1000    5.3712    2.1048 C.ar      1 <0>        -0.0377
      7 C7         -2.8885    4.8791    0.9512 C.2       1 <0>         0.1010
      8 C8         -2.5712    3.8037    0.1408 C.2       1 <0>         0.0069
      9 N1         -3.5774    3.7193   -0.7951 N.pl3     1 <0>        -0.4587
     10 C9         -4.4563    4.7095   -0.5319 C.2       1 <0>         0.2109
     11 N2         -4.0457    5.3954    0.4984 N.2       1 <0>        -0.4621
     12 C10        -3.6771    2.7350   -1.8757 C.3       1 <0>         0.0835
     13 C11        -2.8333    3.1967   -3.0655 C.3       1 <0>        -0.0231
     14 C12        -2.4929    0.9436   -3.8868 C.3       1 <0>        -0.0459
     15 C13        -2.7737    0.0030   -5.0617 C.3       1 <0>         0.0364
     16 O1         -2.2079    0.5551   -6.2535 O.3       1 <0>        -0.3540
     17 C14        -2.7112    1.8528   -6.5822 C.3       1 <0>         0.0351
     18 C15        -2.4297    2.8121   -5.4227 C.3       1 <0>        -0.0378
     19 C16        -1.3892    2.9275    0.2529 C.ar      1 <0>         0.0219
     20 C17        -1.5298    1.5362    0.3440 C.ar      1 <0>        -0.1773
     21 C18        -0.3983    0.7563    0.4519 C.ar      1 <0>         0.1093
     22 N3          0.8034    1.3023    0.4602 N.ar      1 <0>        -0.4729
     23 C19         0.9812    2.6072    0.3716 C.ar      1 <0>         0.1145
     24 C20        -0.0942    3.4629    0.2657 C.ar      1 <0>        -0.1462
     25 F1          0.0910    6.7397    5.3152 F         1 <0>        -0.1322
     26 H1         -1.4618    3.4109    2.7131 H         1 <0>         0.1268
     27 H2         -0.1485    4.2362    4.6219 H         1 <0>         0.1407
     28 H3         -1.2627    8.2476    3.6724 H         1 <0>         0.1432
     29 H4         -2.5735    7.4385    1.7550 H         1 <0>         0.1391
     30 H5         -5.3590    4.9061   -1.0913 H         1 <0>         0.2179
     31 H6         -3.3114    1.7705   -1.5234 H         1 <0>         0.1123
     32 H7         -4.7180    2.6384   -2.1842 H         1 <0>         0.1213
     33 H8         -3.1375    4.2016   -3.3585 H         1 <0>         0.1420
     34 H9         -1.7804    3.2036   -2.7834 H         1 <0>         0.1388
     35 H10        -1.4171    1.0142   -3.7262 H         1 <0>         0.1429
     36 H11        -2.9711    0.5554   -2.9875 H         1 <0>         0.1394
     37 H12        -3.8505   -0.1098   -5.1884 H         1 <0>         0.0833
     38 H13        -2.3260   -0.9708   -4.8635 H         1 <0>         0.1442
     39 H14        -3.7861    1.7938   -6.7530 H         1 <0>         0.0832
     40 H15        -2.2188    2.2172   -7.4838 H         1 <0>         0.1445
     41 H16        -2.8618    3.7879   -5.6445 H         1 <0>         0.1437
     42 H17        -1.3529    2.9126   -5.2866 H         1 <0>         0.1419
     43 H18        -2.5097    1.0822    0.3337 H         1 <0>         0.1326
     44 H19        -0.4963   -0.3167    0.5263 H         1 <0>         0.1623
     45 H20         1.9832    3.0100    0.3820 H         1 <0>         0.1653
     46 H21         0.0589    4.5296    0.1940 H         1 <0>         0.1414
     47 N4         -3.0585    2.2729   -4.1983 N.4       1 <0>        -0.3923
     48 H22        -4.0687    2.1777   -4.3555 H         1 <0>         0.4285
@<TRIPOS>BOND
     1    1    6 ar
     2    1    2 ar
     3    1   26 1
     4    2    3 ar
     5    2   27 1
     6    3    4 ar
     7    3   25 1
     8    4    5 ar
     9    4   28 1
    10    5    6 ar
    11    5   29 1
    12    6    7 1
    13    7   11 1
    14    7    8 2
    15    8    9 1
    16    8   19 1
    17    9   10 1
    18    9   12 1
    19   10   11 2
    20   10   30 1
    21   12   13 1
    22   12   31 1
    23   12   32 1
    24   13   33 1
    25   13   34 1
    26   13   47 1
    27   14   15 1
    28   14   35 1
    29   14   36 1
    30   14   47 1
    31   15   16 1
    32   15   37 1
    33   15   38 1
    34   16   17 1
    35   17   18 1
    36   17   39 1
    37   17   40 1
    38   18   41 1
    39   18   42 1
    40   18   47 1
    41   19   24 ar
    42   19   20 ar
    43   20   21 ar
    44   20   43 1
    45   21   22 ar
    46   21   44 1
    47   22   23 ar
    48   23   24 ar
    49   23   45 1
    50   24   46 1
    51   47   48 1
@<TRIPOS>MOLECULE
ZINC03815785
   49    52     0     0     0
SMALL
USER_CHARGES

@<TRIPOS>ATOM
      1 C1         -1.4171    4.4697    2.9210 C.ar      1 <0>        -0.0422
      2 C2         -0.6807    4.9332    3.9915 C.ar      1 <0>        -0.1471
      3 C3         -0.6270    6.2910    4.2624 C.ar      1 <0>         0.1546
      4 C4         -1.3076    7.1902    3.4572 C.ar      1 <0>        -0.1463
      5 C5         -2.0428    6.7369    2.3816 C.ar      1 <0>        -0.0578
      6 C6         -2.1000    5.3712    2.1048 C.ar      1 <0>        -0.1010
      7 C7         -2.8885    4.8791    0.9512 C.2       1 <0>         0.1367
      8 C8         -2.5712    3.8037    0.1408 C.2       1 <0>         0.0928
      9 N1         -3.5774    3.7193   -0.7951 N.pl3     1 <0>        -0.4133
     10 C9         -4.4563    4.7095   -0.5319 C.cat     1 <0>         0.3079
     11 C10        -3.6771    2.7350   -1.8757 C.3       1 <0>         0.0711
     12 C11        -2.8333    3.1967   -3.0655 C.3       1 <0>        -0.0260
     13 C12        -2.4929    0.9436   -3.8868 C.3       1 <0>        -0.0485
     14 C13        -2.7737    0.0030   -5.0617 C.3       1 <0>         0.0349
     15 O1         -2.2079    0.5551   -6.2535 O.3       1 <0>        -0.3493
     16 C14        -2.7112    1.8528   -6.5822 C.3       1 <0>         0.0336
     17 C15        -2.4297    2.8121   -5.4227 C.3       1 <0>        -0.0378
     18 C16        -1.3892    2.9275    0.2529 C.ar      1 <0>        -0.0261
     19 C17        -1.5298    1.5362    0.3440 C.ar      1 <0>        -0.1620
     20 C18        -0.3983    0.7563    0.4519 C.ar      1 <0>         0.1200
     21 N2          0.8034    1.3023    0.4602 N.ar      1 <0>        -0.4512
     22 C19         0.9812    2.6072    0.3716 C.ar      1 <0>         0.1247
     23 C20        -0.0942    3.4629    0.2657 C.ar      1 <0>        -0.1322
     24 F1          0.0910    6.7397    5.3152 F         1 <0>        -0.1145
     25 H1         -1.4618    3.4109    2.7131 H         1 <0>         0.1375
     26 H2         -0.1485    4.2362    4.6219 H         1 <0>         0.1552
     27 H3         -1.2627    8.2476    3.6724 H         1 <0>         0.1565
     28 H4         -2.5735    7.4385    1.7550 H         1 <0>         0.1385
     29 H5         -5.3590    4.9061   -1.0913 H         1 <0>         0.2704
     30 H6         -3.3114    1.7705   -1.5234 H         1 <0>         0.1392
     31 H7         -4.7180    2.6384   -2.1842 H         1 <0>         0.1466
     32 H8         -3.1375    4.2016   -3.3585 H         1 <0>         0.1475
     33 H9         -1.7804    3.2036   -2.7834 H         1 <0>         0.1471
     34 H10        -1.4171    1.0142   -3.7262 H         1 <0>         0.1466
     35 H11        -2.9711    0.5554   -2.9875 H         1 <0>         0.1386
     36 H12        -3.8505   -0.1098   -5.1884 H         1 <0>         0.0860
     37 H13        -2.3260   -0.9708   -4.8635 H         1 <0>         0.1480
     38 H14        -3.7861    1.7938   -6.7530 H         1 <0>         0.0861
     39 H15        -2.2188    2.2172   -7.4838 H         1 <0>         0.1490
     40 H16        -2.8618    3.7879   -5.6445 H         1 <0>         0.1461
     41 H17        -1.3529    2.9126   -5.2866 H         1 <0>         0.1454
     42 H18        -2.5097    1.0822    0.3337 H         1 <0>         0.1406
     43 H19        -0.4963   -0.3167    0.5263 H         1 <0>         0.1734
     44 H20         1.9832    3.0100    0.3820 H         1 <0>         0.1756
     45 H21         0.0589    4.5296    0.1940 H         1 <0>         0.1482
     46 N3         -3.0585    2.2729   -4.1983 N.4       1 <0>        -0.3928
     47 H22        -4.0687    2.1777   -4.3555 H         1 <0>         0.4314
     48 N4         -4.0460    5.3958    0.4986 N.pl3     1 <0>        -0.4711
     49 H23        -4.5312    6.2056    0.9024 H         1 <0>         0.4894
@<TRIPOS>BOND
     1    1    6 ar
     2    1    2 ar
     3    1   25 1
     4    2    3 ar
     5    2   26 1
     6    3    4 ar
     7    3   24 1
     8    4    5 ar
     9    4   27 1
    10    5    6 ar
    11    5   28 1
    12    6    7 1
    13    7    8 2
    14    7   48 1
    15    8    9 1
    16    8   18 1
    17    9   10 1
    18    9   11 1
    19   10   29 1
    20   10   48 2
    21   11   12 1
    22   11   30 1
    23   11   31 1
    24   12   32 1
    25   12   33 1
    26   12   46 1
    27   13   14 1
    28   13   34 1
    29   13   35 1
    30   13   46 1
    31   14   15 1
    32   14   36 1
    33   14   37 1
    34   15   16 1
    35   16   17 1
    36   16   38 1
    37   16   39 1
    38   17   40 1
    39   17   41 1
    40   17   46 1
    41   18   23 ar
    42   18   19 ar
    43   19   20 ar
    44   19   42 1
    45   20   21 ar
    46   20   43 1
    47   21   22 ar
    48   22   23 ar
    49   22   44 1
    50   23   45 1
    51   46   47 1
    52   48   49 1
@<TRIPOS>MOLECULE
ZINC03815786
   39    42     0     0     0
SMALL
USER_CHARGES

@<TRIPOS>ATOM
      1 C1         -6.1678    8.6068    2.2863 C.ar      1 <0>        -0.1057
      2 C2         -6.7806    7.8383    1.3125 C.ar      1 <0>        -0.1147
      3 C3         -6.1052    6.7822    0.7365 C.ar      1 <0>        -0.1116
      4 C4         -4.8008    6.4899    1.1379 C.ar      1 <0>        -0.0237
      5 C5         -4.1903    7.2658    2.1244 C.ar      1 <0>        -0.0735
      6 C6         -4.8747    8.3227    2.6883 C.ar      1 <0>        -0.1160
      7 C7         -4.0710    5.3596    0.5248 C.2       1 <0>         0.2449
      8 N1         -2.7993    4.9768    0.8379 N.2       1 <0>        -0.4504
      9 H1         -5.4564    4.6282   -0.8114 H         1 <0>         0.4298
     10 C8         -2.4941    3.8944    0.0463 C.2       1 <0>         0.0683
     11 C9         -3.6137    3.6536   -0.7353 C.2       1 <0>         0.0161
     12 N2         -4.5438    4.5646   -0.4076 N.pl3     1 <0>        -0.5063
     13 C10        -3.7596    2.5813   -1.7448 C.ar      1 <0>         0.0110
     14 C11        -2.6623    2.1977   -2.5189 C.ar      1 <0>        -0.0941
     15 C12        -2.7953    1.2010   -3.4510 C.ar      1 <0>        -0.0603
     16 C13        -4.0327    0.5762   -3.6341 C.ar      1 <0>        -0.0209
     17 C14        -5.1319    0.9645   -2.8623 C.ar      1 <0>        -0.0615
     18 C15        -4.9958    1.9574   -1.9267 C.ar      1 <0>        -0.1163
     19 C16        -4.1741   -0.4604   -4.6120 C.1       1 <0>         0.2473
     20 N3         -4.2863   -1.2827   -5.3876 N.1       1 <0>        -0.4054
     21 C17        -1.2261    3.1407    0.0302 C.ar      1 <0>         0.0389
     22 C18        -1.2210    1.7391    0.0173 C.ar      1 <0>        -0.1539
     23 C19        -0.0126    1.0758    0.0080 C.ar      1 <0>         0.1015
     24 N4          1.1267    1.7421    0.0007 N.ar      1 <0>        -0.4824
     25 C20         1.1676    3.0614    0.0074 C.ar      1 <0>         0.1014
     26 C21         0.0076    3.8059    0.0220 C.ar      1 <0>        -0.1458
     27 H2         -6.7010    9.4322    2.7343 H         1 <0>         0.1281
     28 H3         -7.7900    8.0655    1.0029 H         1 <0>         0.1295
     29 H4         -6.5847    6.1830   -0.0234 H         1 <0>         0.1177
     30 H5         -3.1829    7.0419    2.4428 H         1 <0>         0.1383
     31 H6         -4.4018    8.9268    3.4484 H         1 <0>         0.1314
     32 H7         -1.7077    2.6835   -2.3805 H         1 <0>         0.1369
     33 H8         -1.9456    0.9017   -4.0468 H         1 <0>         0.1401
     34 H9         -6.0880    0.4823   -3.0029 H         1 <0>         0.1388
     35 H10        -5.8447    2.2575   -1.3305 H         1 <0>         0.1313
     36 H11        -2.1494    1.1873    0.0184 H         1 <0>         0.1351
     37 H12         0.0021   -0.0041    0.0020 H         1 <0>         0.1584
     38 H13         2.1233    3.5645    0.0009 H         1 <0>         0.1590
     39 H14         0.0487    4.8851    0.0274 H         1 <0>         0.1387
@<TRIPOS>BOND
     1    1    6 ar
     2    1    2 ar
     3    1   27 1
     4    2    3 ar
     5    2   28 1
     6    3    4 ar
     7    3   29 1
     8    4    5 ar
     9    4    7 1
    10    5    6 ar
    11    5   30 1
    12    6   31 1
    13    7    8 2
    14    7   12 1
    15    8   10 1
    16    9   12 1
    17   10   11 2
    18   10   21 1
    19   11   12 1
    20   11   13 1
    21   13   18 ar
    22   13   14 ar
    23   14   15 ar
    24   14   32 1
    25   15   16 ar
    26   15   33 1
    27   16   17 ar
    28   16   19 1
    29   17   18 ar
    30   17   34 1
    31   18   35 1
    32   19   20 3
    33   21   26 ar
    34   21   22 ar
    35   22   23 ar
    36   22   36 1
    37   23   24 ar
    38   23   37 1
    39   24   25 ar
    40   25   26 ar
    41   25   38 1
    42   26   39 1
@<TRIPOS>MOLECULE
ZINC03815786
   40    43     0     0     0
SMALL
USER_CHARGES

@<TRIPOS>ATOM
      1 C1         -6.1678    8.6068    2.2863 C.ar      1 <0>        -0.0628
      2 C2         -6.7806    7.8383    1.3125 C.ar      1 <0>        -0.1056
      3 C3         -6.1052    6.7822    0.7365 C.ar      1 <0>        -0.0742
      4 C4         -4.8008    6.4899    1.1379 C.ar      1 <0>        -0.0963
      5 C5         -4.1903    7.2658    2.1244 C.ar      1 <0>        -0.0718
      6 C6         -4.8747    8.3227    2.6883 C.ar      1 <0>        -0.1061
      7 C7         -4.0710    5.3596    0.5248 C.cat     1 <0>         0.3965
      8 N1         -2.7993    4.9768    0.8379 N.pl3     1 <0>        -0.5089
      9 H1         -2.2011    5.4035    1.5162 H         1 <0>         0.4719
     10 C8         -2.4941    3.8944    0.0463 C.2       1 <0>         0.1222
     11 C9         -3.6168    3.6483   -0.7293 C.2       1 <0>         0.1040
     12 C10        -3.7648    2.5723   -1.7345 C.ar      1 <0>        -0.0418
     13 C11        -2.6688    2.1847   -2.5084 C.ar      1 <0>        -0.0771
     14 C12        -2.8038    1.1846   -3.4365 C.ar      1 <0>        -0.0631
     15 C13        -4.0420    0.5603   -3.6158 C.ar      1 <0>         0.0203
     16 C14        -5.1400    0.9526   -2.8442 C.ar      1 <0>        -0.0634
     17 C15        -5.0018    1.9489   -1.9126 C.ar      1 <0>        -0.0931
     18 C16        -4.1855   -0.4799   -4.5895 C.1       1 <0>         0.2284
     19 N2         -4.2994   -1.3051   -5.3618 N.1       1 <0>        -0.3733
     20 C17        -1.2261    3.1407    0.0302 C.ar      1 <0>        -0.0222
     21 C18        -1.2210    1.7391    0.0173 C.ar      1 <0>        -0.1316
     22 C19        -0.0126    1.0758    0.0080 C.ar      1 <0>         0.1171
     23 N3          1.1267    1.7421    0.0007 N.ar      1 <0>        -0.4574
     24 C20         1.1676    3.0614    0.0074 C.ar      1 <0>         0.1172
     25 C21         0.0076    3.8059    0.0220 C.ar      1 <0>        -0.1476
     26 H2         -6.7010    9.4322    2.7343 H         1 <0>         0.1457
     27 H3         -7.7900    8.0655    1.0029 H         1 <0>         0.1477
     28 H4         -6.5847    6.1830   -0.0234 H         1 <0>         0.1321
     29 H5         -3.1829    7.0419    2.4428 H         1 <0>         0.1318
     30 H6         -4.4018    8.9268    3.4484 H         1 <0>         0.1473
     31 H7         -1.7136    2.6701   -2.3729 H         1 <0>         0.1412
     32 H8         -1.9551    0.8822   -4.0321 H         1 <0>         0.1501
     33 H9         -6.0967    0.4707   -2.9818 H         1 <0>         0.1499
     34 H10        -5.8498    2.2521   -1.3165 H         1 <0>         0.1382
     35 H11        -2.1494    1.1873    0.0184 H         1 <0>         0.1476
     36 H12         0.0021   -0.0041    0.0020 H         1 <0>         0.1725
     37 H13         2.1233    3.5645    0.0009 H         1 <0>         0.1714
     38 H14         0.0487    4.8851    0.0274 H         1 <0>         0.1423
     39 N4         -4.5461    4.5615   -0.4042 N.pl3     1 <0>        -0.4776
     40 H15        -5.4835    4.6261   -0.8180 H         1 <0>         0.4786
@<TRIPOS>BOND
     1    1    6 ar
     2    1    2 ar
     3    1   26 1
     4    2    3 ar
     5    2   27 1
     6    3    4 ar
     7    3   28 1
     8    4    5 ar
     9    4    7 1
    10    5    6 ar
    11    5   29 1
    12    6   30 1
    13    7    8 1
    14    7   39 2
    15    8    9 1
    16    8   10 1
    17   10   11 2
    18   10   20 1
    19   11   12 1
    20   11   39 1
    21   12   17 ar
    22   12   13 ar
    23   13   14 ar
    24   13   31 1
    25   14   15 ar
    26   14   32 1
    27   15   16 ar
    28   15   18 1
    29   16   17 ar
    30   16   33 1
    31   17   34 1
    32   18   19 3
    33   20   25 ar
    34   20   21 ar
    35   21   22 ar
    36   21   35 1
    37   22   23 ar
    38   22   36 1
    39   23   24 ar
    40   24   25 ar
    41   24   37 1
    42   25   38 1
    43   39   40 1
@<TRIPOS>MOLECULE
ZINC03815786
   39    42     0     0     0
SMALL
USER_CHARGES

@<TRIPOS>ATOM
      1 C1         -6.1678    8.6068    2.2863 C.ar      1 <0>        -0.1057
      2 C2         -6.7806    7.8383    1.3125 C.ar      1 <0>        -0.1147
      3 C3         -6.1052    6.7822    0.7365 C.ar      1 <0>        -0.1116
      4 C4         -4.8008    6.4899    1.1379 C.ar      1 <0>        -0.0237
      5 C5         -4.1903    7.2658    2.1244 C.ar      1 <0>        -0.0735
      6 C6         -4.8747    8.3227    2.6883 C.ar      1 <0>        -0.1160
      7 C7         -4.0710    5.3596    0.5248 C.2       1 <0>         0.2449
      8 N1         -2.7993    4.9768    0.8379 N.2       1 <0>        -0.4504
      9 H1         -5.4564    4.6282   -0.8114 H         1 <0>         0.4298
     10 C8         -2.4941    3.8944    0.0463 C.2       1 <0>         0.0683
     11 C9         -3.6137    3.6536   -0.7353 C.2       1 <0>         0.0161
     12 N2         -4.5438    4.5646   -0.4076 N.pl3     1 <0>        -0.5063
     13 C10        -3.7596    2.5813   -1.7448 C.ar      1 <0>         0.0110
     14 C11        -2.6623    2.1977   -2.5189 C.ar      1 <0>        -0.0941
     15 C12        -2.7953    1.2010   -3.4510 C.ar      1 <0>        -0.0603
     16 C13        -4.0327    0.5762   -3.6341 C.ar      1 <0>        -0.0209
     17 C14        -5.1319    0.9645   -2.8623 C.ar      1 <0>        -0.0615
     18 C15        -4.9958    1.9574   -1.9267 C.ar      1 <0>        -0.1163
     19 C16        -4.1741   -0.4604   -4.6120 C.1       1 <0>         0.2473
     20 N3         -4.2863   -1.2827   -5.3876 N.1       1 <0>        -0.4054
     21 C17        -1.2261    3.1407    0.0302 C.ar      1 <0>         0.0389
     22 C18        -1.2210    1.7391    0.0173 C.ar      1 <0>        -0.1539
     23 C19        -0.0126    1.0758    0.0080 C.ar      1 <0>         0.1015
     24 N4          1.1267    1.7421    0.0007 N.ar      1 <0>        -0.4824
     25 C20         1.1676    3.0614    0.0074 C.ar      1 <0>         0.1014
     26 C21         0.0076    3.8059    0.0220 C.ar      1 <0>        -0.1458
     27 H2         -6.7010    9.4322    2.7343 H         1 <0>         0.1281
     28 H3         -7.7900    8.0655    1.0029 H         1 <0>         0.1295
     29 H4         -6.5847    6.1830   -0.0234 H         1 <0>         0.1177
     30 H5         -3.1829    7.0419    2.4428 H         1 <0>         0.1383
     31 H6         -4.4018    8.9268    3.4484 H         1 <0>         0.1314
     32 H7         -1.7077    2.6835   -2.3805 H         1 <0>         0.1369
     33 H8         -1.9456    0.9017   -4.0468 H         1 <0>         0.1401
     34 H9         -6.0880    0.4823   -3.0029 H         1 <0>         0.1388
     35 H10        -5.8447    2.2575   -1.3305 H         1 <0>         0.1313
     36 H11        -2.1494    1.1873    0.0184 H         1 <0>         0.1351
     37 H12         0.0021   -0.0041    0.0020 H         1 <0>         0.1584
     38 H13         2.1233    3.5645    0.0009 H         1 <0>         0.1590
     39 H14         0.0487    4.8851    0.0274 H         1 <0>         0.1387
@<TRIPOS>BOND
     1    1    6 ar
     2    1    2 ar
     3    1   27 1
     4    2    3 ar
     5    2   28 1
     6    3    4 ar
     7    3   29 1
     8    4    5 ar
     9    4    7 1
    10    5    6 ar
    11    5   30 1
    12    6   31 1
    13    7    8 2
    14    7   12 1
    15    8   10 1
    16    9   12 1
    17   10   11 2
    18   10   21 1
    19   11   12 1
    20   11   13 1
    21   13   18 ar
    22   13   14 ar
    23   14   15 ar
    24   14   32 1
    25   15   16 ar
    26   15   33 1
    27   16   17 ar
    28   16   19 1
    29   17   18 ar
    30   17   34 1
    31   18   35 1
    32   19   20 3
    33   21   26 ar
    34   21   22 ar
    35   22   23 ar
    36   22   36 1
    37   23   24 ar
    38   23   37 1
    39   24   25 ar
    40   25   26 ar
    41   25   38 1
    42   26   39 1
@<TRIPOS>MOLECULE
ZINC03827319
   50    54     0     0     0
SMALL
USER_CHARGES

@<TRIPOS>ATOM
      1 C1          7.6239   -5.2587   -3.2980 C.3       1 <0>        -0.4980
      2 S1          7.8598   -3.5963   -3.9847 S.o       1 <0>         1.3304
      3 O1          7.2985   -3.5386   -5.2889 O.2       1 <0>        -0.8523
      4 C2          6.7944   -2.5801   -3.0168 C.ar      1 <0>        -0.4652
      5 C3          7.2706   -1.9881   -1.8604 C.ar      1 <0>        -0.0325
      6 C4          6.4418   -1.1914   -1.0979 C.ar      1 <0>        -0.1416
      7 C5          5.1198   -0.9833   -1.4952 C.ar      1 <0>         0.0218
      8 C6          4.6440   -1.5886   -2.6597 C.ar      1 <0>        -0.1181
      9 C7          5.4852   -2.3780   -3.4162 C.ar      1 <0>        -0.0445
     10 C8          4.2261   -0.1308   -0.6833 C.2       1 <0>         0.0546
     11 C9          2.9245    0.1464   -0.9646 C.2       1 <0>        -0.1361
     12 C10         2.4381    0.9914    0.0572 C.2       1 <0>        -0.1184
     13 C11         3.4887    1.2066    0.9416 C.2       1 <0>         0.0963
     14 N1          4.5726    0.5113    0.4798 N.pl3     1 <0>        -0.5353
     15 H1          5.4448    0.4800    0.9030 H         1 <0>         0.4194
     16 C12         3.4423    2.0345    2.1616 C.ar      1 <0>        -0.0406
     17 C13         2.8877    3.3164    2.1188 C.ar      1 <0>        -0.0587
     18 C14         2.8425    4.0834    3.2636 C.ar      1 <0>        -0.1478
     19 C15         3.3561    3.5897    4.4527 C.ar      1 <0>         0.1099
     20 C16         3.9123    2.3209    4.5003 C.ar      1 <0>        -0.1491
     21 C17         3.9581    1.5422    3.3634 C.ar      1 <0>        -0.0791
     22 F1          3.3141    4.3481    5.5700 F         1 <0>        -0.1350
     23 C18         1.0732    1.5466    0.1628 C.ar      1 <0>         0.0560
     24 C19         0.5978    2.4670   -0.7659 C.ar      1 <0>        -0.1714
     25 C20        -0.6880    2.9722   -0.6343 C.ar      1 <0>         0.1336
     26 N2         -1.4835    2.5997    0.3413 N.ar      1 <0>        -0.4778
     27 C21        -1.0952    1.7194    1.2703 C.ar      1 <0>         0.1314
     28 C22         0.2031    1.1584    1.2146 C.ar      1 <0>        -0.0879
     29 C23         0.6046    0.2376    2.1904 C.ar      1 <0>        -0.0855
     30 C24        -0.2598   -0.1100    3.1853 C.ar      1 <0>        -0.1197
     31 C25        -1.5381    0.4395    3.2439 C.ar      1 <0>        -0.0986
     32 C26        -1.9593    1.3375    2.3115 C.ar      1 <0>        -0.0964
     33 H2          6.5778   -5.5480   -3.3980 H         1 <0>         0.0811
     34 H3          8.2503   -5.9676   -3.8392 H         1 <0>         0.1078
     35 H4          7.9018   -5.2591   -2.2440 H         1 <0>         0.1111
     36 H5          8.2936   -2.1499   -1.5541 H         1 <0>         0.1408
     37 H6          6.8147   -0.7299   -0.1955 H         1 <0>         0.1223
     38 H7          3.6209   -1.4355   -2.9700 H         1 <0>         0.1315
     39 H8          5.1198   -2.8427   -4.3201 H         1 <0>         0.1310
     40 H9          2.3648   -0.2137   -1.8152 H         1 <0>         0.1471
     41 H10         2.4913    3.7038    1.1919 H         1 <0>         0.1350
     42 H11         2.4101    5.0726    3.2329 H         1 <0>         0.1408
     43 H12         4.3109    1.9417    5.4296 H         1 <0>         0.1407
     44 H13         4.3920    0.5540    3.4016 H         1 <0>         0.1321
     45 H14         1.2273    2.7899   -1.5820 H         1 <0>         0.1389
     46 H15        -1.0462    3.6894   -1.3580 H         1 <0>         0.1601
     47 H16         1.5937   -0.1946    2.1549 H         1 <0>         0.1257
     48 H17         0.0506   -0.8199    3.9377 H         1 <0>         0.1253
     49 H18        -2.2056    0.1489    4.0417 H         1 <0>         0.1295
     50 H19        -2.9538    1.7545    2.3709 H         1 <0>         0.1353
@<TRIPOS>BOND
     1    1    2 1
     2    1   33 1
     3    1   34 1
     4    1   35 1
     5    2    3 2
     6    2    4 1
     7    4    9 ar
     8    4    5 ar
     9    5    6 ar
    10    5   36 1
    11    6    7 ar
    12    6   37 1
    13    7    8 ar
    14    7   10 1
    15    8    9 ar
    16    8   38 1
    17    9   39 1
    18   10   14 1
    19   10   11 2
    20   11   12 1
    21   11   40 1
    22   12   13 2
    23   12   23 1
    24   13   14 1
    25   13   16 1
    26   14   15 1
    27   16   21 ar
    28   16   17 ar
    29   17   18 ar
    30   17   41 1
    31   18   19 ar
    32   18   42 1
    33   19   20 ar
    34   19   22 1
    35   20   21 ar
    36   20   43 1
    37   21   44 1
    38   23   28 ar
    39   23   24 ar
    40   24   25 ar
    41   24   45 1
    42   25   26 ar
    43   25   46 1
    44   26   27 ar
    45   27   32 ar
    46   27   28 ar
    47   28   29 ar
    48   29   30 ar
    49   29   47 1
    50   30   31 ar
    51   30   48 1
    52   31   32 ar
    53   31   49 1
    54   32   50 1
@<TRIPOS>MOLECULE
ZINC03827321
   65    69     0     0     0
SMALL
USER_CHARGES

@<TRIPOS>ATOM
      1 C1         -3.0039    6.7024   -0.8908 C.ar      1 <0>        -0.1063
      2 C2         -2.0274    6.7136    0.0897 C.ar      1 <0>        -0.1168
      3 C3         -1.2697    5.5855    0.3258 C.ar      1 <0>        -0.1085
      4 C4         -1.4897    4.4300   -0.4280 C.ar      1 <0>        -0.0383
      5 C5         -2.4733    4.4279   -1.4201 C.ar      1 <0>        -0.0850
      6 C6         -3.2276    5.5613   -1.6410 C.ar      1 <0>        -0.1142
      7 C7         -0.6827    3.2193   -0.1816 C.2       1 <0>         0.1086
      8 C8         -1.1688    1.9251   -0.0515 C.2       1 <0>        -0.1202
      9 C9         -0.0593    1.0867    0.1768 C.2       1 <0>        -0.1274
     10 C10         1.0559    1.8701    0.1727 C.2       1 <0>         0.0338
     11 N1          0.6774    3.1718   -0.0459 N.pl3     1 <0>        -0.5364
     12 H1          1.2765    3.9330   -0.0958 H         1 <0>         0.4178
     13 C11         2.4398    1.3981    0.3702 C.ar      1 <0>         0.0353
     14 C12         3.5007    2.3086    0.3367 C.ar      1 <0>        -0.1359
     15 C13         4.7811    1.8723    0.5238 C.ar      1 <0>        -0.0710
     16 C14         5.0324    0.5136    0.7388 C.ar      1 <0>        -0.1580
     17 C15         3.9721   -0.3976    0.7676 C.ar      1 <0>        -0.0390
     18 C16         2.6912    0.0393    0.5852 C.ar      1 <0>        -0.1129
     19 C17         6.4165    0.0414    0.9359 C.2       1 <0>         0.5716
     20 O1          6.6350   -1.1400    1.1232 O.2       1 <0>        -0.5209
     21 N2          7.4385    0.9196    0.9082 N.am      1 <0>        -0.7333
     22 C18         8.8127    0.4508    1.1038 C.3       1 <0>         0.0954
     23 C19         9.7729    1.6395    1.0265 C.3       1 <0>        -0.0177
     24 C20        11.3404    0.6482    2.5823 C.3       1 <0>        -0.0090
     25 C21        12.7379    0.0366    2.7052 C.3       1 <0>        -0.1472
     26 C22        13.7876    1.1083    2.3983 C.3       1 <0>        -0.1397
     27 C23        13.5381    1.6688    0.9954 C.3       1 <0>        -0.1478
     28 C24        12.1175    2.2332    0.9221 C.3       1 <0>        -0.0006
     29 C25        -2.5867    1.5051   -0.1346 C.ar      1 <0>         0.0352
     30 C26        -3.5557    2.0770    0.6969 C.ar      1 <0>        -0.1580
     31 C27        -4.8652    1.6602    0.5825 C.ar      1 <0>         0.1026
     32 N3         -5.2063    0.7289   -0.2881 N.ar      1 <0>        -0.4864
     33 C28        -4.3230    0.1605   -1.0871 C.ar      1 <0>         0.1014
     34 C29        -2.9929    0.5214   -1.0429 C.ar      1 <0>        -0.1647
     35 H2         -3.5944    7.5885   -1.0711 H         1 <0>         0.1274
     36 H3         -1.8584    7.6075    0.6716 H         1 <0>         0.1274
     37 H4         -0.5084    5.5954    1.0918 H         1 <0>         0.1199
     38 H5         -2.6457    3.5396   -2.0095 H         1 <0>         0.1245
     39 H6         -3.9914    5.5598   -2.4045 H         1 <0>         0.1288
     40 H7         -0.0871    0.0171    0.3237 H         1 <0>         0.1488
     41 H8          3.3070    3.3573    0.1662 H         1 <0>         0.1244
     42 H9          5.6000    2.5760    0.5020 H         1 <0>         0.1241
     43 H10         4.1662   -1.4469    0.9336 H         1 <0>         0.1432
     44 H11         1.8723   -0.6645    0.6067 H         1 <0>         0.1413
     45 H12         7.2642    1.8620    0.7587 H         1 <0>         0.4067
     46 H13         8.8991   -0.0231    2.0816 H         1 <0>         0.0906
     47 H14         9.0645   -0.2708    0.3267 H         1 <0>         0.0904
     48 H15         9.6864    2.1134    0.0487 H         1 <0>         0.1367
     49 H16         9.5211    2.3611    1.8036 H         1 <0>         0.1382
     50 H17        11.2353    1.4611    3.3008 H         1 <0>         0.1322
     51 H18        10.5903   -0.1159    2.7863 H         1 <0>         0.1306
     52 H19        12.8390   -0.7854    1.9965 H         1 <0>         0.0888
     53 H20        12.8845   -0.3367    3.7188 H         1 <0>         0.1134
     54 H21        14.7830    0.6663    2.4423 H         1 <0>         0.0950
     55 H22        13.7134    1.9124    3.1304 H         1 <0>         0.0820
     56 H23        13.6518    0.8726    0.2598 H         1 <0>         0.0885
     57 H24        14.2560    2.4623    0.7877 H         1 <0>         0.1133
     58 H25        11.9318    2.6202   -0.0798 H         1 <0>         0.1292
     59 H26        12.0088    3.0385    1.6485 H         1 <0>         0.1312
     60 H27        -3.2829    2.8363    1.4147 H         1 <0>         0.1308
     61 H28        -5.6210    2.0984    1.2174 H         1 <0>         0.1555
     62 H29        -4.6463   -0.5979   -1.7848 H         1 <0>         0.1566
     63 H30        -2.2755    0.0521   -1.6997 H         1 <0>         0.1346
     64 N4         11.1547    1.1471    1.2030 N.4       1 <0>        -0.3902
     65 H31        11.3207    0.3766    0.5449 H         1 <0>         0.4295
@<TRIPOS>BOND
     1    1    6 ar
     2    1    2 ar
     3    1   35 1
     4    2    3 ar
     5    2   36 1
     6    3    4 ar
     7    3   37 1
     8    4    5 ar
     9    4    7 1
    10    5    6 ar
    11    5   38 1
    12    6   39 1
    13    7   11 1
    14    7    8 2
    15    8    9 1
    16    8   29 1
    17    9   10 2
    18    9   40 1
    19   10   11 1
    20   10   13 1
    21   11   12 1
    22   13   18 ar
    23   13   14 ar
    24   14   15 ar
    25   14   41 1
    26   15   16 ar
    27   15   42 1
    28   16   17 ar
    29   16   19 1
    30   17   18 ar
    31   17   43 1
    32   18   44 1
    33   19   20 2
    34   19   21 am
    35   21   22 1
    36   21   45 1
    37   22   23 1
    38   22   46 1
    39   22   47 1
    40   23   48 1
    41   23   49 1
    42   23   64 1
    43   24   25 1
    44   24   50 1
    45   24   51 1
    46   24   64 1
    47   25   26 1
    48   25   52 1
    49   25   53 1
    50   26   27 1
    51   26   54 1
    52   26   55 1
    53   27   28 1
    54   27   56 1
    55   27   57 1
    56   28   58 1
    57   28   59 1
    58   28   64 1
    59   29   34 ar
    60   29   30 ar
    61   30   31 ar
    62   30   60 1
    63   31   32 ar
    64   31   61 1
    65   32   33 ar
    66   33   34 ar
    67   33   62 1
    68   34   63 1
    69   64   65 1
@<TRIPOS>MOLECULE
ZINC03832040
   39    42     0     0     0
SMALL
USER_CHARGES

@<TRIPOS>ATOM
      1 C1         -6.1616    8.8435    2.4123 C.ar      1 <0>        -0.1181
      2 C2         -6.7994    8.0899    1.4430 C.ar      1 <0>        -0.1108
      3 C3         -6.1417    7.0386    0.8386 C.ar      1 <0>        -0.1004
      4 C4         -4.8297    6.7358    1.2071 C.ar      1 <0>        -0.0211
      5 C5         -4.1940    7.4967    2.1899 C.ar      1 <0>        -0.1216
      6 C6         -4.8613    8.5488    2.7822 C.ar      1 <0>        -0.1114
      7 C7         -4.1188    5.6109    0.5638 C.2       1 <0>         0.0729
      8 C8         -4.6304    4.7954   -0.3981 C.2       1 <0>        -0.1484
      9 C9         -3.6317    3.8584   -0.7378 C.2       1 <0>        -0.1075
     10 C10        -2.5228    4.1425    0.0465 C.2       1 <0>         0.0790
     11 N1         -2.8352    5.2122    0.8415 N.pl3     1 <0>        -0.5361
     12 H1         -2.2451    5.6226    1.4929 H         1 <0>         0.4191
     13 C11        -1.2380    3.4168    0.0309 C.ar      1 <0>        -0.0058
     14 C12        -0.0332    4.1243    0.0236 C.ar      1 <0>        -0.0922
     15 C13         1.1649    3.4417    0.0094 C.ar      1 <0>        -0.1195
     16 C14         1.1767    2.0562    0.0019 C.ar      1 <0>         0.0745
     17 C15        -0.0162    1.3468    0.0094 C.ar      1 <0>         0.0766
     18 C16        -1.2219    2.0200    0.0188 C.ar      1 <0>        -0.0990
     19 F1          0.0021   -0.0041    0.0020 F         1 <0>        -0.1224
     20 F2          2.3538    1.3933   -0.0125 F         1 <0>        -0.1237
     21 C17        -3.7456    2.7759   -1.7419 C.ar      1 <0>         0.0350
     22 C18        -2.7672    2.6035   -2.7273 C.ar      1 <0>        -0.1629
     23 C19        -2.9105    1.5801   -3.6400 C.ar      1 <0>         0.1018
     24 N2         -3.9566    0.7764   -3.5983 N.ar      1 <0>        -0.4878
     25 C20        -4.9039    0.9072   -2.6887 C.ar      1 <0>         0.1017
     26 C21        -4.8374    1.9008   -1.7351 C.ar      1 <0>        -0.1640
     27 H2         -6.6809    9.6658    2.8821 H         1 <0>         0.1255
     28 H3         -7.8143    8.3254    1.1586 H         1 <0>         0.1286
     29 H4         -6.6406    6.4513    0.0819 H         1 <0>         0.1294
     30 H5         -3.1808    7.2646    2.4829 H         1 <0>         0.1152
     31 H6         -4.3693    9.1408    3.5397 H         1 <0>         0.1258
     32 H7         -5.6211    4.8548   -0.8242 H         1 <0>         0.1478
     33 H8         -0.0402    5.2042    0.0288 H         1 <0>         0.1405
     34 H9          2.0963    3.9884    0.0038 H         1 <0>         0.1521
     35 H10        -2.1502    1.4680    0.0205 H         1 <0>         0.1480
     36 H11        -1.9107    3.2601   -2.7700 H         1 <0>         0.1314
     37 H12        -2.1587    1.4367   -4.4021 H         1 <0>         0.1550
     38 H13        -5.7427    0.2269   -2.6916 H         1 <0>         0.1566
     39 H14        -5.6162    2.0020   -0.9937 H         1 <0>         0.1363
@<TRIPOS>BOND
     1    1    6 ar
     2    1    2 ar
     3    1   27 1
     4    2    3 ar
     5    2   28 1
     6    3    4 ar
     7    3   29 1
     8    4    5 ar
     9    4    7 1
    10    5    6 ar
    11    5   30 1
    12    6   31 1
    13    7   11 1
    14    7    8 2
    15    8    9 1
    16    8   32 1
    17    9   10 2
    18    9   21 1
    19   10   11 1
    20   10   13 1
    21   11   12 1
    22   13   18 ar
    23   13   14 ar
    24   14   15 ar
    25   14   33 1
    26   15   16 ar
    27   15   34 1
    28   16   17 ar
    29   16   20 1
    30   17   18 ar
    31   17   19 1
    32   18   35 1
    33   21   26 ar
    34   21   22 ar
    35   22   23 ar
    36   22   36 1
    37   23   24 ar
    38   23   37 1
    39   24   25 ar
    40   25   26 ar
    41   25   38 1
    42   26   39 1
@<TRIPOS>MOLECULE
ZINC03832042
   44    47     0     0     0
SMALL
USER_CHARGES

@<TRIPOS>ATOM
      1 C1          7.4504    0.6803   -0.7607 C.3       1 <0>        -0.1939
      2 C2          6.2896   -0.2299   -0.4523 C.2       1 <0>         0.3924
      3 O1          6.4772   -1.4166   -0.2843 O.2       1 <0>        -0.4561
      4 C3          4.9320    0.3195   -0.3552 C.ar      1 <0>        -0.1772
      5 C4          3.8384   -0.5399   -0.1823 C.ar      1 <0>        -0.0488
      6 C5          2.5768   -0.0281   -0.0926 C.ar      1 <0>        -0.1162
      7 C6          2.3746    1.3542   -0.1732 C.ar      1 <0>         0.0207
      8 C7          3.4652    2.2129   -0.3511 C.ar      1 <0>        -0.1382
      9 C8          4.7282    1.7038   -0.4357 C.ar      1 <0>        -0.0618
     10 C9          1.0107    1.9060   -0.0766 C.2       1 <0>         0.0506
     11 C10        -0.1311    1.1796    0.0904 C.2       1 <0>        -0.1350
     12 C11        -1.2096    2.0853    0.1266 C.2       1 <0>        -0.1179
     13 C12        -0.6772    3.3608   -0.0144 C.2       1 <0>         0.0962
     14 N1          0.6786    3.2376   -0.1407 N.pl3     1 <0>        -0.5350
     15 H1          1.3036    3.9703   -0.2566 H         1 <0>         0.4191
     16 C13        -1.4401    4.6237   -0.0305 C.ar      1 <0>        -0.0423
     17 C14        -2.5881    4.7396   -0.8185 C.ar      1 <0>        -0.0579
     18 C15        -3.2997    5.9205   -0.8254 C.ar      1 <0>        -0.1484
     19 C16        -2.8718    6.9952   -0.0616 C.ar      1 <0>         0.1095
     20 C17        -1.7307    6.8879    0.7181 C.ar      1 <0>        -0.1500
     21 C18        -1.0140    5.7103    0.7376 C.ar      1 <0>        -0.0791
     22 F1         -3.5701    8.1517   -0.0767 F         1 <0>        -0.1349
     23 C19        -2.6414    1.7424    0.2874 C.ar      1 <0>         0.0373
     24 C20        -3.4025    2.3003    1.3204 C.ar      1 <0>        -0.1595
     25 C21        -4.7334    1.9571    1.4307 C.ar      1 <0>         0.1013
     26 N2         -5.2866    1.1081    0.5852 N.ar      1 <0>        -0.4881
     27 C22        -4.6033    0.5555   -0.3995 C.ar      1 <0>         0.1006
     28 C23        -3.2686    0.8471   -0.5859 C.ar      1 <0>        -0.1642
     29 H2          7.1329    1.6282   -0.7867 H         1 <0>         0.0741
     30 H3          8.2115    0.5730    0.0122 H         1 <0>         0.0946
     31 H4          7.8749    0.4126   -1.7283 H         1 <0>         0.0970
     32 H5          3.9942   -1.6068   -0.1205 H         1 <0>         0.1391
     33 H6          1.7339   -0.6902    0.0402 H         1 <0>         0.1364
     34 H7          3.3074    3.2793   -0.4172 H         1 <0>         0.1223
     35 H8          5.5701    2.3670   -0.5689 H         1 <0>         0.1374
     36 H9         -0.1971    0.1050    0.1750 H         1 <0>         0.1484
     37 H10        -2.9197    3.9045   -1.4177 H         1 <0>         0.1352
     38 H11        -4.1897    6.0098   -1.4306 H         1 <0>         0.1413
     39 H12        -1.4022    7.7286    1.3111 H         1 <0>         0.1408
     40 H13        -0.1249    5.6280    1.3452 H         1 <0>         0.1325
     41 H14        -2.9552    2.9923    2.0186 H         1 <0>         0.1313
     42 H15        -5.3302    2.3857    2.2223 H         1 <0>         0.1547
     43 H16        -5.0962   -0.1346   -1.0682 H         1 <0>         0.1560
     44 H17        -2.7157    0.3915   -1.3940 H         1 <0>         0.1355
@<TRIPOS>BOND
     1    1    2 1
     2    1   29 1
     3    1   30 1
     4    1   31 1
     5    2    3 2
     6    2    4 1
     7    4    9 ar
     8    4    5 ar
     9    5    6 ar
    10    5   32 1
    11    6    7 ar
    12    6   33 1
    13    7    8 ar
    14    7   10 1
    15    8    9 ar
    16    8   34 1
    17    9   35 1
    18   10   14 1
    19   10   11 2
    20   11   12 1
    21   11   36 1
    22   12   13 2
    23   12   23 1
    24   13   14 1
    25   13   16 1
    26   14   15 1
    27   16   21 ar
    28   16   17 ar
    29   17   18 ar
    30   17   37 1
    31   18   19 ar
    32   18   38 1
    33   19   20 ar
    34   19   22 1
    35   20   21 ar
    36   20   39 1
    37   21   40 1
    38   23   28 ar
    39   23   24 ar
    40   24   25 ar
    41   24   41 1
    42   25   26 ar
    43   25   42 1
    44   26   27 ar
    45   27   28 ar
    46   27   43 1
    47   28   44 1
@<TRIPOS>MOLECULE
ZINC03832044
   47    50     0     0     0
SMALL
USER_CHARGES

@<TRIPOS>ATOM
      1 C1          3.4621   -0.0335    2.2086 C.3       1 <0>        -0.1129
      2 C2          2.3821    0.1650    1.1765 C.ar      1 <0>        -0.1202
      3 C3          1.2312   -0.5939    1.2130 C.ar      1 <0>         0.0990
      4 N1          0.2803   -0.4263    0.3135 N.ar      1 <0>        -0.4831
      5 C4          0.3817    0.4652   -0.6547 C.ar      1 <0>         0.0924
      6 C5          1.4984    1.2659   -0.7655 C.ar      1 <0>        -0.1592
      7 C6          2.5318    1.1222    0.1672 C.ar      1 <0>         0.0325
      8 C7          3.7500    1.9605    0.0883 C.2       1 <0>        -0.1114
      9 C8          4.7299    1.9223   -0.9261 C.2       1 <0>        -0.1392
     10 C9          5.6766    2.8503   -0.6184 C.2       1 <0>         0.0543
     11 N2          5.3219    3.4682    0.5548 N.pl3     1 <0>        -0.5362
     12 H1          5.8243    4.1700    0.9973 H         1 <0>         0.4187
     13 C10         4.1399    2.9360    0.9949 C.2       1 <0>         0.0914
     14 C11         3.4118    3.3278    2.2171 C.ar      1 <0>        -0.0391
     15 C12         2.0363    3.5674    2.1676 C.ar      1 <0>        -0.0592
     16 C13         1.3604    3.9280    3.3141 C.ar      1 <0>        -0.1478
     17 C14         2.0449    4.0636    4.5117 C.ar      1 <0>         0.1090
     18 C15         3.4105    3.8322    4.5660 C.ar      1 <0>        -0.1492
     19 C16         4.0962    3.4660    3.4273 C.ar      1 <0>        -0.0808
     20 F1          1.3783    4.4222    5.6307 F         1 <0>        -0.1350
     21 C17         6.8864    3.1439   -1.4151 C.ar      1 <0>         0.0223
     22 C18         7.1386    2.4380   -2.5928 C.ar      1 <0>        -0.1184
     23 C19         8.2666    2.7210   -3.3347 C.ar      1 <0>        -0.0445
     24 C20         9.1528    3.6942   -2.9082 C.ar      1 <0>        -0.4655
     25 C21         8.9120    4.3933   -1.7386 C.ar      1 <0>        -0.0324
     26 C22         7.7848    4.1242   -0.9902 C.ar      1 <0>        -0.1419
     27 S1         10.5947    4.0446   -3.8583 S.o       1 <0>         1.3304
     28 O1         10.2473    3.6352   -5.1740 O.2       1 <0>        -0.8525
     29 C23        11.8478    2.9186   -3.1857 C.3       1 <0>        -0.4980
     30 H2          4.2163   -0.7169    1.8184 H         1 <0>         0.0718
     31 H3          3.9254    0.9259    2.4387 H         1 <0>         0.0723
     32 H4          3.0257   -0.4530    3.1150 H         1 <0>         0.0674
     33 H5          1.1044   -1.3322    1.9909 H         1 <0>         0.1539
     34 H6         -0.4213    0.5689   -1.3695 H         1 <0>         0.1556
     35 H7          1.5745    1.9935   -1.5600 H         1 <0>         0.1352
     36 H8          4.7288    1.2744   -1.7902 H         1 <0>         0.1457
     37 H9          1.5028    3.4669    1.2340 H         1 <0>         0.1351
     38 H10         0.2964    4.1092    3.2780 H         1 <0>         0.1410
     39 H11         3.9384    3.9394    5.5020 H         1 <0>         0.1408
     40 H12         5.1604    3.2867    3.4706 H         1 <0>         0.1324
     41 H13         6.4498    1.6752   -2.9247 H         1 <0>         0.1313
     42 H14         8.4607    2.1788   -4.2484 H         1 <0>         0.1308
     43 H15         9.6079    5.1515   -1.4111 H         1 <0>         0.1407
     44 H16         7.5977    4.6711   -0.0779 H         1 <0>         0.1222
     45 H17        11.5146    1.8882   -3.3099 H         1 <0>         0.0811
     46 H18        12.7885    3.0627   -3.7171 H         1 <0>         0.1078
     47 H19        11.9933    3.1282   -2.1260 H         1 <0>         0.1111
@<TRIPOS>BOND
     1    1    2 1
     2    1   30 1
     3    1   31 1
     4    1   32 1
     5    2    7 ar
     6    2    3 ar
     7    3    4 ar
     8    3   33 1
     9    4    5 ar
    10    5    6 ar
    11    5   34 1
    12    6    7 ar
    13    6   35 1
    14    7    8 1
    15    8   13 2
    16    8    9 1
    17    9   10 2
    18    9   36 1
    19   10   11 1
    20   10   21 1
    21   11   12 1
    22   11   13 1
    23   13   14 1
    24   14   19 ar
    25   14   15 ar
    26   15   16 ar
    27   15   37 1
    28   16   17 ar
    29   16   38 1
    30   17   18 ar
    31   17   20 1
    32   18   19 ar
    33   18   39 1
    34   19   40 1
    35   21   26 ar
    36   21   22 ar
    37   22   23 ar
    38   22   41 1
    39   23   24 ar
    40   23   42 1
    41   24   25 ar
    42   24   27 1
    43   25   26 ar
    44   25   43 1
    45   26   44 1
    46   27   28 2
    47   27   29 1
    48   29   45 1
    49   29   46 1
    50   29   47 1
@<TRIPOS>MOLECULE
ZINC03832045
   41    44     0     0     0
SMALL
USER_CHARGES

@<TRIPOS>ATOM
      1 C1         -8.7966    1.1072    0.0522 C.ar      1 <0>        -0.1015
      2 C2         -8.0089    1.8696    0.9047 C.ar      1 <0>        -0.1175
      3 C3         -6.6523    1.7195    0.9067 C.ar      1 <0>        -0.1037
      4 C4         -6.0505    0.7839    0.0367 C.ar      1 <0>        -0.0509
      5 C5         -6.8624    0.0189   -0.8294 C.ar      1 <0>        -0.0769
      6 C6         -8.2171    0.1834   -0.8076 C.ar      1 <0>        -0.1167
      7 C7         -4.6499    0.6189    0.0289 C.2       1 <0>         0.1084
      8 C8         -3.9135   -0.6706    0.0190 C.2       1 <0>        -0.1135
      9 C9         -2.5837   -0.3613    0.0137 C.2       1 <0>        -0.0907
     10 C10        -2.4627    1.0503    0.0198 C.2       1 <0>        -0.0156
     11 N1         -3.7147    1.6160    0.0344 N.pl3     1 <0>        -0.4947
     12 H1         -3.9041    2.5673    0.0443 H         1 <0>         0.4247
     13 C11        -1.2411    1.7668    0.0175 C.ar      1 <0>         0.0694
     14 C12        -0.0126    1.0758    0.0080 C.ar      1 <0>        -0.1220
     15 C13         1.1590    1.7774    0.0005 C.ar      1 <0>        -0.0288
     16 C14         1.1432    3.1653    0.0072 C.ar      1 <0>        -0.0307
     17 C15        -0.0604    3.8564    0.0215 C.ar      1 <0>        -0.0270
     18 C16        -1.2445    3.1763    0.0295 C.ar      1 <0>        -0.1477
     19 N2          2.4204    3.9144   -0.0015 N.pl3     1 <0>        -0.0150
     20 O1          3.5654    3.2638   -0.0154 O.2       1 <0>        -0.1745
     21 O2          2.4114    5.2314    0.0048 O.3       1 <0>        -0.1786
     22 C17        -4.5041   -2.0231    0.0148 C.ar      1 <0>         0.0327
     23 C18        -5.4931   -2.3819    0.9431 C.ar      1 <0>        -0.1570
     24 C19        -6.0199   -3.6562    0.8986 C.ar      1 <0>         0.1024
     25 N3         -5.5994   -4.5332    0.0076 N.ar      1 <0>        -0.4872
     26 C20        -4.6687   -4.2408   -0.8800 C.ar      1 <0>         0.1022
     27 C21        -4.0888   -2.9894   -0.9139 C.ar      1 <0>        -0.1640
     28 H2         -9.8692    1.2334    0.0583 H         1 <0>         0.1273
     29 H3         -8.4718    2.5841    1.5692 H         1 <0>         0.1280
     30 H4         -6.0419    2.3133    1.5708 H         1 <0>         0.1214
     31 H5         -6.4136   -0.6964   -1.5027 H         1 <0>         0.1259
     32 H6         -8.8406   -0.4035   -1.4658 H         1 <0>         0.1289
     33 H7         -1.7674   -1.0684    0.0065 H         1 <0>         0.1547
     34 H8          0.0021   -0.0041    0.0020 H         1 <0>         0.1540
     35 H9          2.1015    1.2502   -0.0109 H         1 <0>         0.1590
     36 H10        -0.0604    4.9364    0.0265 H         1 <0>         0.1561
     37 H11        -2.1798    3.7161    0.0403 H         1 <0>         0.1381
     38 H12        -5.8394   -1.6705    1.6783 H         1 <0>         0.1321
     39 H13        -6.7846   -3.9411    1.6061 H         1 <0>         0.1555
     40 H14        -4.3558   -4.9918   -1.5903 H         1 <0>         0.1570
     41 H15        -3.3274   -2.7571   -1.6438 H         1 <0>         0.1363
@<TRIPOS>BOND
     1    1    6 ar
     2    1    2 ar
     3    1   28 1
     4    2    3 ar
     5    2   29 1
     6    3    4 ar
     7    3   30 1
     8    4    5 ar
     9    4    7 1
    10    5    6 ar
    11    5   31 1
    12    6   32 1
    13    7   11 1
    14    7    8 2
    15    8    9 1
    16    8   22 1
    17    9   10 2
    18    9   33 1
    19   10   11 1
    20   10   13 1
    21   11   12 1
    22   13   18 ar
    23   13   14 ar
    24   14   15 ar
    25   14   34 1
    26   15   16 ar
    27   15   35 1
    28   16   17 ar
    29   16   19 1
    30   17   18 ar
    31   17   36 1
    32   18   37 1
    33   19   20 2
    34   19   21 1
    35   22   27 ar
    36   22   23 ar
    37   23   24 ar
    38   23   38 1
    39   24   25 ar
    40   24   39 1
    41   25   26 ar
    42   26   27 ar
    43   26   40 1
    44   27   41 1
@<TRIPOS>MOLECULE
ZINC03832052
   45    48     0     0     0
SMALL
USER_CHARGES

@<TRIPOS>ATOM
      1 C1         -1.1345    2.0336   -1.2793 C.3       1 <0>        -0.6502
      2 S1         -0.0172    1.4168    0.0098 S.o2      1 <0>         2.5003
      3 O1          0.0021   -0.0041    0.0020 O.2       1 <0>        -0.9356
      4 O2          1.1953    2.1578    0.0022 O.2       1 <0>        -0.9371
      5 C2         -0.7978    1.8475    1.5296 C.ar      1 <0>        -0.6660
      6 C3         -0.5187    3.0641    2.1267 C.ar      1 <0>        -0.0124
      7 C4         -1.1307    3.4099    3.3136 C.ar      1 <0>        -0.1468
      8 C5         -2.0250    2.5246    3.9180 C.ar      1 <0>         0.0438
      9 C6         -2.2978    1.2963    3.3132 C.ar      1 <0>        -0.1256
     10 C7         -1.6828    0.9652    2.1236 C.ar      1 <0>        -0.0126
     11 C8         -2.6806    2.8863    5.1924 C.2       1 <0>         0.0450
     12 C9         -3.5667    2.1123    5.8763 C.2       1 <0>        -0.1309
     13 C10        -3.9495    2.8234    7.0332 C.2       1 <0>        -0.1184
     14 C11        -3.2680    4.0320    7.0127 C.2       1 <0>         0.1018
     15 N1         -2.4920    4.0560    5.8853 N.pl3     1 <0>        -0.5358
     16 H1         -1.9062    4.7817    5.6186 H         1 <0>         0.4198
     17 C12        -3.3589    5.0987    8.0283 C.ar      1 <0>        -0.0443
     18 C13        -4.6055    5.4954    8.5190 C.ar      1 <0>        -0.0569
     19 C14        -4.6838    6.4889    9.4718 C.ar      1 <0>        -0.1482
     20 C15        -3.5298    7.1015    9.9347 C.ar      1 <0>         0.1106
     21 C16        -2.2906    6.7158    9.4478 C.ar      1 <0>        -0.1497
     22 C17        -2.1993    5.7198    8.4988 C.ar      1 <0>        -0.0791
     23 F1         -3.6131    8.0780   10.8646 F         1 <0>        -0.1344
     24 C18        -4.8994    2.3662    8.0733 C.ar      1 <0>         0.0367
     25 C19        -4.5588    2.4154    9.4295 C.ar      1 <0>        -0.1603
     26 C20        -5.4756    1.9848   10.3651 C.ar      1 <0>         0.1019
     27 N2         -6.6547    1.5214    9.9952 N.ar      1 <0>        -0.4880
     28 C21        -7.0133    1.4529    8.7269 C.ar      1 <0>         0.1012
     29 C22        -6.1600    1.8677    7.7265 C.ar      1 <0>        -0.1645
     30 H2         -2.1080    1.5544   -1.1761 H         1 <0>         0.1321
     31 H3         -1.2479    3.1127   -1.1759 H         1 <0>         0.1312
     32 H4         -0.7188    1.8043   -2.2605 H         1 <0>         0.1340
     33 H5          0.1764    3.7464    1.6601 H         1 <0>         0.1454
     34 H6         -0.9151    4.3616    3.7766 H         1 <0>         0.1259
     35 H7         -2.9884    0.6068    3.7758 H         1 <0>         0.1401
     36 H8         -1.8929    0.0153    1.6546 H         1 <0>         0.1480
     37 H9         -3.9140    1.1316    5.5860 H         1 <0>         0.1497
     38 H10        -5.5056    5.0221    8.1555 H         1 <0>         0.1353
     39 H11        -5.6464    6.7934    9.8551 H         1 <0>         0.1418
     40 H12        -1.3949    7.1968    9.8123 H         1 <0>         0.1413
     41 H13        -1.2333    5.4207    8.1196 H         1 <0>         0.1325
     42 H14        -3.5940    2.7891    9.7392 H         1 <0>         0.1313
     43 H15        -5.2237    2.0230   11.4147 H         1 <0>         0.1550
     44 H16        -7.9883    1.0663    8.4692 H         1 <0>         0.1563
     45 H17        -6.4602    1.8091    6.6907 H         1 <0>         0.1355
@<TRIPOS>BOND
     1    1    2 1
     2    1   30 1
     3    1   31 1
     4    1   32 1
     5    2    3 2
     6    2    4 2
     7    2    5 1
     8    5   10 ar
     9    5    6 ar
    10    6    7 ar
    11    6   33 1
    12    7    8 ar
    13    7   34 1
    14    8    9 ar
    15    8   11 1
    16    9   10 ar
    17    9   35 1
    18   10   36 1
    19   11   15 1
    20   11   12 2
    21   12   13 1
    22   12   37 1
    23   13   14 2
    24   13   24 1
    25   14   15 1
    26   14   17 1
    27   15   16 1
    28   17   22 ar
    29   17   18 ar
    30   18   19 ar
    31   18   38 1
    32   19   20 ar
    33   19   39 1
    34   20   21 ar
    35   20   23 1
    36   21   22 ar
    37   21   40 1
    38   22   41 1
    39   24   29 ar
    40   24   25 ar
    41   25   26 ar
    42   25   42 1
    43   26   27 ar
    44   26   43 1
    45   27   28 ar
    46   28   29 ar
    47   28   44 1
    48   29   45 1
@<TRIPOS>MOLECULE
ZINC03832053
   39    42     0     0     0
SMALL
USER_CHARGES

@<TRIPOS>ATOM
      1 C1          5.0375    0.5081    0.7411 C.ar      1 <0>        -0.1196
      2 C2          3.9903   -0.3958    0.7691 C.ar      1 <0>        -0.1106
      3 C3          2.6942    0.0395    0.5853 C.ar      1 <0>        -0.1017
      4 C4          2.4405    1.3953    0.3707 C.ar      1 <0>        -0.0187
      5 C5          3.5022    2.3012    0.3379 C.ar      1 <0>        -0.1229
      6 C6          4.7930    1.8533    0.5288 C.ar      1 <0>        -0.1112
      7 C7          1.0544    1.8689    0.1731 C.2       1 <0>         0.0662
      8 C8         -0.0593    1.0868    0.1772 C.2       1 <0>        -0.1475
      9 C9         -1.1703    1.9260   -0.0514 C.2       1 <0>        -0.1163
     10 C10        -0.6842    3.2192   -0.1809 C.2       1 <0>         0.0872
     11 N1          0.6771    3.1704   -0.0451 N.pl3     1 <0>        -0.5381
     12 H1          1.2769    3.9311   -0.0949 H         1 <0>         0.4179
     13 C11        -1.4903    4.4303   -0.4277 C.ar      1 <0>        -0.0389
     14 C12        -2.4740    4.4278   -1.4199 C.ar      1 <0>        -0.0593
     15 C13        -3.2276    5.5608   -1.6424 C.ar      1 <0>        -0.1483
     16 C14        -3.0035    6.7041   -0.8915 C.ar      1 <0>         0.1078
     17 C15        -2.0255    6.7143    0.0906 C.ar      1 <0>        -0.1499
     18 C16        -1.2690    5.5858    0.3259 C.ar      1 <0>        -0.0804
     19 F1         -3.7416    7.8129   -1.1175 F         1 <0>        -0.1355
     20 C17        -2.5880    1.5062   -0.1339 C.ar      1 <0>         0.0392
     21 C18        -3.5568    2.0787    0.6977 C.ar      1 <0>        -0.1600
     22 C19        -4.8664    1.6625    0.5836 C.ar      1 <0>         0.1009
     23 N2         -5.2079    0.7307   -0.2865 N.ar      1 <0>        -0.4890
     24 C20        -4.3249    0.1615   -1.0853 C.ar      1 <0>         0.1002
     25 C21        -2.9948    0.5222   -1.0417 C.ar      1 <0>        -0.1647
     26 H2          6.0503    0.1621    0.8859 H         1 <0>         0.1251
     27 H3          4.1880   -1.4445    0.9356 H         1 <0>         0.1282
     28 H4          1.8777   -0.6670    0.6077 H         1 <0>         0.1290
     29 H5          3.3131    3.3507    0.1675 H         1 <0>         0.1148
     30 H6          5.6149    2.5536    0.5078 H         1 <0>         0.1253
     31 H7         -0.0872    0.0172    0.3242 H         1 <0>         0.1460
     32 H8         -2.6462    3.5391   -2.0089 H         1 <0>         0.1348
     33 H9         -3.9913    5.5587   -2.4060 H         1 <0>         0.1408
     34 H10        -1.8554    7.6081    0.6726 H         1 <0>         0.1403
     35 H11        -0.5068    5.5951    1.0909 H         1 <0>         0.1321
     36 H12        -3.2837    2.8383    1.4152 H         1 <0>         0.1311
     37 H13        -5.6221    2.1016    1.2180 H         1 <0>         0.1544
     38 H14        -4.6484   -0.5973   -1.7824 H         1 <0>         0.1557
     39 H15        -2.2777    0.0524   -1.6986 H         1 <0>         0.1352
@<TRIPOS>BOND
     1    1    6 ar
     2    1    2 ar
     3    1   26 1
     4    2    3 ar
     5    2   27 1
     6    3    4 ar
     7    3   28 1
     8    4    5 ar
     9    4    7 1
    10    5    6 ar
    11    5   29 1
    12    6   30 1
    13    7   11 1
    14    7    8 2
    15    8    9 1
    16    8   31 1
    17    9   10 2
    18    9   20 1
    19   10   11 1
    20   10   13 1
    21   11   12 1
    22   13   18 ar
    23   13   14 ar
    24   14   15 ar
    25   14   32 1
    26   15   16 ar
    27   15   33 1
    28   16   17 ar
    29   16   19 1
    30   17   18 ar
    31   17   34 1
    32   18   35 1
    33   20   25 ar
    34   20   21 ar
    35   21   22 ar
    36   21   36 1
    37   22   23 ar
    38   22   37 1
    39   23   24 ar
    40   24   25 ar
    41   24   38 1
    42   25   39 1
@<TRIPOS>MOLECULE
ZINC03832054
   41    44     0     0     0
SMALL
USER_CHARGES

@<TRIPOS>ATOM
      1 C1         -8.1962    9.5457    0.0885 C.ar      1 <0>        -0.1171
      2 C2         -7.1387    9.2519    0.9314 C.ar      1 <0>        -0.1166
      3 C3         -6.5799    7.9909    0.9283 C.ar      1 <0>        -0.1124
      4 C4         -7.0839    7.0093    0.0714 C.ar      1 <0>        -0.0191
      5 C5         -8.1482    7.3147   -0.7805 C.ar      1 <0>        -0.0904
      6 C6         -8.7006    8.5784   -0.7628 C.ar      1 <0>        -0.1162
      7 C7         -6.4910    5.6580    0.0620 C.2       1 <0>         0.0728
      8 C8         -7.1902    4.4582    0.0591 C.2       1 <0>        -0.1218
      9 C9         -6.2351    3.4220    0.0496 C.2       1 <0>        -0.1601
     10 C10        -5.0009    4.0003    0.0469 C.2       1 <0>         0.0899
     11 N1         -5.1552    5.3647    0.0604 N.pl3     1 <0>        -0.5372
     12 H1         -4.4347    6.0141    0.0653 H         1 <0>         0.4176
     13 C11        -3.7134    3.2801    0.0374 C.ar      1 <0>        -0.0408
     14 C12        -3.6945    1.8816    0.0298 C.ar      1 <0>        -0.1110
     15 C13        -2.5030    1.2149    0.0205 C.ar      1 <0>        -0.0821
     16 C14        -1.3010    1.9307    0.0187 C.ar      1 <0>        -0.1040
     17 C15        -1.3201    3.3294    0.0322 C.ar      1 <0>        -0.0734
     18 C16        -2.5118    3.9958    0.0356 C.ar      1 <0>        -0.1331
     19 C17        -0.0144    1.2110    0.0087 C.2       1 <0>         0.4861
     20 O1          0.0021   -0.0041    0.0020 O.co2     1 <0>        -0.6287
     21 C18        -8.6626    4.2977    0.0646 C.ar      1 <0>         0.0490
     22 C19        -9.4563    4.9779    0.9945 C.ar      1 <0>        -0.1605
     23 C20       -10.8237    4.8029    0.9614 C.ar      1 <0>         0.0975
     24 N2        -11.3828    4.0002    0.0755 N.ar      1 <0>        -0.4943
     25 C21       -10.6705    3.3368   -0.8156 C.ar      1 <0>         0.0976
     26 C22        -9.2975    3.4573   -0.8563 C.ar      1 <0>        -0.1656
     27 H2         -8.6301   10.5347    0.0954 H         1 <0>         0.1225
     28 H3         -6.7503   10.0116    1.5935 H         1 <0>         0.1244
     29 H4         -5.7549    7.7629    1.5869 H         1 <0>         0.1212
     30 H5         -8.5402    6.5619   -1.4484 H         1 <0>         0.1229
     31 H6         -9.5260    8.8147   -1.4180 H         1 <0>         0.1243
     32 H7         -6.4433    2.3623    0.0457 H         1 <0>         0.1447
     33 H8         -4.6225    1.3291    0.0315 H         1 <0>         0.1226
     34 H9         -2.4885    0.1350    0.0143 H         1 <0>         0.1321
     35 H10        -0.3923    3.8821    0.0353 H         1 <0>         0.1332
     36 H11        -2.5266    5.0757    0.0415 H         1 <0>         0.1082
     37 H12        -9.0051    5.6330    1.7250 H         1 <0>         0.1298
     38 H13       -11.4451    5.3265    1.6728 H         1 <0>         0.1517
     39 H14       -11.1697    2.6905   -1.5224 H         1 <0>         0.1537
     40 H15        -8.7208    2.9114   -1.5883 H         1 <0>         0.1356
     41 O2          1.1434    1.9006    0.0013 O.co2     1 <0>        -0.7530
@<TRIPOS>BOND
     1    1    6 ar
     2    1    2 ar
     3    1   27 1
     4    2    3 ar
     5    2   28 1
     6    3    4 ar
     7    3   29 1
     8    4    5 ar
     9    4    7 1
    10    5    6 ar
    11    5   30 1
    12    6   31 1
    13    7   11 1
    14    7    8 2
    15    8    9 1
    16    8   21 1
    17    9   10 2
    18    9   32 1
    19   10   11 1
    20   10   13 1
    21   11   12 1
    22   13   18 ar
    23   13   14 ar
    24   14   15 ar
    25   14   33 1
    26   15   16 ar
    27   15   34 1
    28   16   17 ar
    29   16   19 1
    30   17   18 ar
    31   17   35 1
    32   18   36 1
    33   19   20 2
    34   19   41 1
    35   21   26 ar
    36   21   22 ar
    37   22   23 ar
    38   22   37 1
    39   23   24 ar
    40   23   38 1
    41   24   25 ar
    42   25   26 ar
    43   25   39 1
    44   26   40 1
@<TRIPOS>MOLECULE
ZINC03832056
   39    42     0     0     0
SMALL
USER_CHARGES

@<TRIPOS>ATOM
      1 C1          5.0376    0.5084    0.7415 C.ar      1 <0>        -0.1204
      2 C2          3.9905   -0.3955    0.7695 C.ar      1 <0>        -0.1105
      3 C3          2.6944    0.0398    0.5859 C.ar      1 <0>        -0.1024
      4 C4          2.4406    1.3956    0.3711 C.ar      1 <0>        -0.0172
      5 C5          3.5023    2.3014    0.3382 C.ar      1 <0>        -0.1235
      6 C6          4.7930    1.8537    0.5295 C.ar      1 <0>        -0.1111
      7 C7          1.0545    1.8691    0.1730 C.2       1 <0>         0.0623
      8 C8         -0.0593    1.0867    0.1771 C.2       1 <0>        -0.1474
      9 C9         -1.1701    1.9258   -0.0514 C.2       1 <0>        -0.1205
     10 C10        -0.6840    3.2189   -0.1814 C.2       1 <0>         0.0903
     11 N1          0.6773    3.1701   -0.0453 N.pl3     1 <0>        -0.5382
     12 H1          1.2771    3.9308   -0.0952 H         1 <0>         0.4174
     13 C11        -1.4903    4.4302   -0.4271 C.ar      1 <0>        -0.0297
     14 C12        -2.4738    4.4292   -1.4193 C.ar      1 <0>        -0.0878
     15 C13        -3.2272    5.5633   -1.6399 C.ar      1 <0>        -0.1153
     16 C14        -3.0032    6.7037   -0.8887 C.ar      1 <0>        -0.1110
     17 C15        -2.0268    6.7137    0.0918 C.ar      1 <0>        -0.1167
     18 C16        -1.2698    5.5851    0.3274 C.ar      1 <0>        -0.1099
     19 C17        -2.5881    1.5060   -0.1338 C.ar      1 <0>         0.0417
     20 C18        -3.5567    2.0786    0.6978 C.ar      1 <0>        -0.1588
     21 C19        -4.8663    1.6620    0.5842 C.ar      1 <0>         0.1005
     22 N2         -5.2079    0.7302   -0.2857 N.ar      1 <0>        -0.4897
     23 C20        -4.3250    0.1611   -1.0848 C.ar      1 <0>         0.0995
     24 C21        -2.9948    0.5218   -1.0413 C.ar      1 <0>        -0.1652
     25 H2          6.0505    0.1625    0.8862 H         1 <0>         0.1249
     26 H3          4.1882   -1.4441    0.9359 H         1 <0>         0.1280
     27 H4          1.8778   -0.6667    0.6087 H         1 <0>         0.1288
     28 H5          3.3131    3.3510    0.1680 H         1 <0>         0.1145
     29 H6          5.6149    2.5541    0.5091 H         1 <0>         0.1252
     30 H7         -0.0871    0.0171    0.3240 H         1 <0>         0.1453
     31 H8         -2.6467    3.5413   -2.0094 H         1 <0>         0.1235
     32 H9         -3.9906    5.5627   -2.4038 H         1 <0>         0.1268
     33 H10        -3.5935    7.5901   -1.0684 H         1 <0>         0.1254
     34 H11        -1.8575    7.6072    0.6743 H         1 <0>         0.1262
     35 H12        -0.5086    5.5941    1.0934 H         1 <0>         0.1204
     36 H13        -3.2834    2.8381    1.4153 H         1 <0>         0.1305
     37 H14        -5.6218    2.1007    1.2191 H         1 <0>         0.1541
     38 H15        -4.6487   -0.5976   -1.7819 H         1 <0>         0.1553
     39 H16        -2.2778    0.0520   -1.6982 H         1 <0>         0.1346
@<TRIPOS>BOND
     1    1    6 ar
     2    1    2 ar
     3    1   25 1
     4    2    3 ar
     5    2   26 1
     6    3    4 ar
     7    3   27 1
     8    4    5 ar
     9    4    7 1
    10    5    6 ar
    11    5   28 1
    12    6   29 1
    13    7   11 1
    14    7    8 2
    15    8    9 1
    16    8   30 1
    17    9   10 2
    18    9   19 1
    19   10   11 1
    20   10   13 1
    21   11   12 1
    22   13   18 ar
    23   13   14 ar
    24   14   15 ar
    25   14   31 1
    26   15   16 ar
    27   15   32 1
    28   16   17 ar
    29   16   33 1
    30   17   18 ar
    31   17   34 1
    32   18   35 1
    33   19   24 ar
    34   19   20 ar
    35   20   21 ar
    36   20   36 1
    37   21   22 ar
    38   21   37 1
    39   22   23 ar
    40   23   24 ar
    41   23   38 1
    42   24   39 1
@<TRIPOS>MOLECULE
ZINC03832057
   39    42     0     0     0
SMALL
USER_CHARGES

@<TRIPOS>ATOM
      1 C1         -3.0037    6.7041   -0.8849 C.ar      1 <0>        -0.1102
      2 C2         -2.0268    6.7137    0.0952 C.ar      1 <0>        -0.1167
      3 C3         -1.2695    5.5851    0.3298 C.ar      1 <0>        -0.1094
      4 C4         -1.4905    4.4304   -0.4250 C.ar      1 <0>        -0.0312
      5 C5         -2.4744    4.4299   -1.4168 C.ar      1 <0>        -0.0873
      6 C6         -3.2284    5.5638   -1.6361 C.ar      1 <0>        -0.1153
      7 C7         -0.6843    3.2190   -0.1800 C.2       1 <0>         0.0940
      8 C8         -1.1703    1.9258   -0.0513 C.2       1 <0>        -0.1199
      9 C9         -0.0593    1.0866    0.1772 C.2       1 <0>        -0.1446
     10 C10         1.0545    1.8688    0.1731 C.2       1 <0>         0.0605
     11 N1          0.6775    3.1699   -0.0445 N.pl3     1 <0>        -0.5385
     12 H1          1.2774    3.9306   -0.0939 H         1 <0>         0.4178
     13 C11         2.4407    1.3950    0.3702 C.ar      1 <0>        -0.0254
     14 C12         3.5021    2.3012    0.3373 C.ar      1 <0>        -0.0947
     15 C13         4.7932    1.8542    0.5258 C.ar      1 <0>        -0.1436
     16 C14         5.0386    0.5069    0.7384 C.ar      1 <0>         0.0976
     17 C15         3.9891   -0.3977    0.7672 C.ar      1 <0>        -0.1429
     18 C16         2.6937    0.0390    0.5843 C.ar      1 <0>        -0.0735
     19 F1          6.3056    0.0737    0.9177 F         1 <0>        -0.1367
     20 C17        -2.5881    1.5060   -0.1344 C.ar      1 <0>         0.0406
     21 C18        -3.5571    2.0781    0.6973 C.ar      1 <0>        -0.1586
     22 C19        -4.8664    1.6608    0.5837 C.ar      1 <0>         0.1007
     23 N2         -5.2077    0.7295   -0.2868 N.ar      1 <0>        -0.4893
     24 C20        -4.3246    0.1612   -1.0862 C.ar      1 <0>         0.0997
     25 C21        -2.9946    0.5223   -1.0425 C.ar      1 <0>        -0.1650
     26 H2         -3.5937    7.5907   -1.0642 H         1 <0>         0.1256
     27 H3         -1.8574    7.6069    0.6782 H         1 <0>         0.1264
     28 H4         -0.5077    5.5939    1.0953 H         1 <0>         0.1207
     29 H5         -2.6474    3.5423   -2.0073 H         1 <0>         0.1237
     30 H6         -3.9926    5.5633   -2.3992 H         1 <0>         0.1270
     31 H7         -0.0872    0.0171    0.3242 H         1 <0>         0.1464
     32 H8          3.3123    3.3508    0.1680 H         1 <0>         0.1257
     33 H9          5.6147    2.5549    0.5043 H         1 <0>         0.1391
     34 H10         4.1860   -1.4466    0.9329 H         1 <0>         0.1419
     35 H11         1.8767   -0.6670    0.6063 H         1 <0>         0.1401
     36 H12        -3.2841    2.8375    1.4150 H         1 <0>         0.1307
     37 H13        -5.6221    2.0991    1.2186 H         1 <0>         0.1541
     38 H14        -4.6480   -0.5971   -1.7839 H         1 <0>         0.1554
     39 H15        -2.2774    0.0531   -1.6997 H         1 <0>         0.1348
@<TRIPOS>BOND
     1    1    6 ar
     2    1    2 ar
     3    1   26 1
     4    2    3 ar
     5    2   27 1
     6    3    4 ar
     7    3   28 1
     8    4    5 ar
     9    4    7 1
    10    5    6 ar
    11    5   29 1
    12    6   30 1
    13    7   11 1
    14    7    8 2
    15    8    9 1
    16    8   20 1
    17    9   10 2
    18    9   31 1
    19   10   11 1
    20   10   13 1
    21   11   12 1
    22   13   18 ar
    23   13   14 ar
    24   14   15 ar
    25   14   32 1
    26   15   16 ar
    27   15   33 1
    28   16   17 ar
    29   16   19 1
    30   17   18 ar
    31   17   34 1
    32   18   35 1
    33   20   25 ar
    34   20   21 ar
    35   21   22 ar
    36   21   36 1
    37   22   23 ar
    38   22   37 1
    39   23   24 ar
    40   24   25 ar
    41   24   38 1
    42   25   39 1
@<TRIPOS>MOLECULE
ZINC03832058
   39    42     0     0     0
SMALL
USER_CHARGES

@<TRIPOS>ATOM
      1 C1          5.0375    0.5073    0.7401 C.ar      1 <0>        -0.1193
      2 C2          3.9902   -0.3965    0.7676 C.ar      1 <0>        -0.1107
      3 C3          2.6942    0.0390    0.5843 C.ar      1 <0>        -0.1015
      4 C4          2.4406    1.3950    0.3702 C.ar      1 <0>        -0.0191
      5 C5          3.5024    2.3006    0.3374 C.ar      1 <0>        -0.1227
      6 C6          4.7931    1.8526    0.5284 C.ar      1 <0>        -0.1112
      7 C7          1.0545    1.8688    0.1730 C.2       1 <0>         0.0672
      8 C8         -0.0594    1.0867    0.1772 C.2       1 <0>        -0.1481
      9 C9         -1.1702    1.9259   -0.0513 C.2       1 <0>        -0.1144
     10 C10        -0.6840    3.2192   -0.1800 C.2       1 <0>         0.0838
     11 N1          0.6773    3.1701   -0.0446 N.pl3     1 <0>        -0.5375
     12 H1          1.2772    3.9308   -0.0938 H         1 <0>         0.4180
     13 C11        -1.4901    4.4306   -0.4256 C.ar      1 <0>        -0.0224
     14 C12        -2.4740    4.4295   -1.4175 C.ar      1 <0>        -0.0763
     15 C13        -3.2271    5.5633   -1.6386 C.ar      1 <0>        -0.1048
     16 C14        -3.0023    6.7050   -0.8874 C.ar      1 <0>        -0.0282
     17 C15        -2.0253    6.7143    0.0941 C.ar      1 <0>        -0.1063
     18 C16        -1.2688    5.5855    0.3289 C.ar      1 <0>        -0.0977
     19 Cl1        -3.9499    8.1305   -1.1771 Cl        1 <0>        -0.0634
     20 C17        -2.5880    1.5063   -0.1343 C.ar      1 <0>         0.0387
     21 C18        -3.5569    2.0785    0.6973 C.ar      1 <0>        -0.1597
     22 C19        -4.8663    1.6613    0.5838 C.ar      1 <0>         0.1013
     23 N2         -5.2077    0.7300   -0.2868 N.ar      1 <0>        -0.4886
     24 C20        -4.3247    0.1616   -1.0862 C.ar      1 <0>         0.1003
     25 C21        -2.9946    0.5226   -1.0425 C.ar      1 <0>        -0.1645
     26 H2          6.0502    0.1612    0.8849 H         1 <0>         0.1252
     27 H3          4.1878   -1.4453    0.9333 H         1 <0>         0.1283
     28 H4          1.8775   -0.6674    0.6067 H         1 <0>         0.1291
     29 H5          3.3134    3.3503    0.1674 H         1 <0>         0.1148
     30 H6          5.6150    2.5529    0.5080 H         1 <0>         0.1254
     31 H7         -0.0874    0.0171    0.3242 H         1 <0>         0.1462
     32 H8         -2.6470    3.5413   -2.0072 H         1 <0>         0.1340
     33 H9         -3.9907    5.5625   -2.4023 H         1 <0>         0.1385
     34 H10        -1.8552    7.6077    0.6767 H         1 <0>         0.1380
     35 H11        -0.5067    5.5942    1.0942 H         1 <0>         0.1312
     36 H12        -3.2840    2.8381    1.4149 H         1 <0>         0.1308
     37 H13        -5.6220    2.0997    1.2187 H         1 <0>         0.1545
     38 H14        -4.6482   -0.5967   -1.7838 H         1 <0>         0.1557
     39 H15        -2.2775    0.0533   -1.6996 H         1 <0>         0.1352
@<TRIPOS>BOND
     1    1    6 ar
     2    1    2 ar
     3    1   26 1
     4    2    3 ar
     5    2   27 1
     6    3    4 ar
     7    3   28 1
     8    4    5 ar
     9    4    7 1
    10    5    6 ar
    11    5   29 1
    12    6   30 1
    13    7   11 1
    14    7    8 2
    15    8    9 1
    16    8   31 1
    17    9   10 2
    18    9   20 1
    19   10   11 1
    20   10   13 1
    21   11   12 1
    22   13   18 ar
    23   13   14 ar
    24   14   15 ar
    25   14   32 1
    26   15   16 ar
    27   15   33 1
    28   16   17 ar
    29   16   19 1
    30   17   18 ar
    31   17   34 1
    32   18   35 1
    33   20   25 ar
    34   20   21 ar
    35   21   22 ar
    36   21   36 1
    37   22   23 ar
    38   22   37 1
    39   23   24 ar
    40   24   25 ar
    41   24   38 1
    42   25   39 1
@<TRIPOS>MOLECULE
ZINC03832064
   41    44     0     0     0
SMALL
USER_CHARGES

@<TRIPOS>ATOM
      1 C1         -8.9026    1.0205    0.0457 C.ar      1 <0>        -0.1131
      2 C2         -8.1199    1.7821    0.8956 C.ar      1 <0>        -0.1166
      3 C3         -6.7488    1.6330    0.8947 C.ar      1 <0>        -0.1121
      4 C4         -6.1504    0.7104    0.0329 C.ar      1 <0>        -0.0259
      5 C5         -6.9466   -0.0513   -0.8262 C.ar      1 <0>        -0.0890
      6 C6         -8.3169    0.1044   -0.8103 C.ar      1 <0>        -0.1150
      7 C7         -4.6841    0.5455    0.0257 C.2       1 <0>         0.0807
      8 C8         -3.9971   -0.6597    0.0162 C.2       1 <0>        -0.1172
      9 C9         -2.6201   -0.3517    0.0120 C.2       1 <0>        -0.1617
     10 C10        -2.5020    1.0044    0.0188 C.2       1 <0>         0.0832
     11 N1         -3.7583    1.5553    0.0332 N.pl3     1 <0>        -0.5411
     12 H1         -3.9583    2.5044    0.0442 H         1 <0>         0.4161
     13 C11        -1.2308    1.7583    0.0174 C.ar      1 <0>        -0.0823
     14 C12        -0.0126    1.0758    0.0080 C.ar      1 <0>        -0.0477
     15 C13         1.1709    1.7818    0.0004 C.ar      1 <0>        -0.1915
     16 C14         1.1529    3.1721    0.0081 C.ar      1 <0>         0.2199
     17 C15        -0.0584    3.8546    0.0229 C.ar      1 <0>        -0.1921
     18 C16        -1.2454    3.1546    0.0310 C.ar      1 <0>        -0.0687
     19 N2          2.3536    3.8842    0.0005 N.pl3     1 <0>        -0.8757
     20 C17        -4.5961   -2.0142    0.0115 C.ar      1 <0>         0.0431
     21 C18        -5.5847   -2.3663    0.9368 C.ar      1 <0>        -0.1601
     22 C19        -6.1187   -3.6369    0.8939 C.ar      1 <0>         0.0999
     23 N3         -5.7021   -4.5172    0.0032 N.ar      1 <0>        -0.4911
     24 C20        -4.7686   -4.2276   -0.8836 C.ar      1 <0>         0.0991
     25 C21        -4.1847   -2.9788   -0.9148 C.ar      1 <0>        -0.1661
     26 H2         -9.9758    1.1414    0.0507 H         1 <0>         0.1246
     27 H3         -8.5839    2.4946    1.5615 H         1 <0>         0.1254
     28 H4         -6.1392    2.2278    1.5588 H         1 <0>         0.1199
     29 H5         -6.4904   -0.7631   -1.4982 H         1 <0>         0.1231
     30 H6         -8.9339   -0.4866   -1.4709 H         1 <0>         0.1261
     31 H7         -1.8074   -1.0628    0.0052 H         1 <0>         0.1432
     32 H8          0.0021   -0.0041    0.0020 H         1 <0>         0.1286
     33 H9          2.1134    1.2546   -0.0118 H         1 <0>         0.1254
     34 H10        -0.0690    4.9345    0.0285 H         1 <0>         0.1226
     35 H11        -2.1859    3.6853    0.0428 H         1 <0>         0.1141
     36 H12         3.1992    3.4091   -0.0102 H         1 <0>         0.4000
     37 H13         2.3423    4.8541    0.0058 H         1 <0>         0.3993
     38 H14        -5.9274   -1.6523    1.6711 H         1 <0>         0.1301
     39 H15        -6.8852   -3.9168    1.6014 H         1 <0>         0.1533
     40 H16        -4.4575   -4.9790   -1.5942 H         1 <0>         0.1547
     41 H17        -3.4216   -2.7487   -1.6435 H         1 <0>         0.1346
@<TRIPOS>BOND
     1    1    6 ar
     2    1    2 ar
     3    1   26 1
     4    2    3 ar
     5    2   27 1
     6    3    4 ar
     7    3   28 1
     8    4    5 ar
     9    4    7 1
    10    5    6 ar
    11    5   29 1
    12    6   30 1
    13    7   11 1
    14    7    8 2
    15    8    9 1
    16    8   20 1
    17    9   10 2
    18    9   31 1
    19   10   11 1
    20   10   13 1
    21   11   12 1
    22   13   18 ar
    23   13   14 ar
    24   14   15 ar
    25   14   32 1
    26   15   16 ar
    27   15   33 1
    28   16   17 ar
    29   16   19 1
    30   17   18 ar
    31   17   34 1
    32   18   35 1
    33   19   36 1
    34   19   37 1
    35   20   25 ar
    36   20   21 ar
    37   21   22 ar
    38   21   38 1
    39   22   23 ar
    40   22   39 1
    41   23   24 ar
    42   24   25 ar
    43   24   40 1
    44   25   41 1
@<TRIPOS>MOLECULE
ZINC03832066
   49    51     0     0     0
SMALL
USER_CHARGES

@<TRIPOS>ATOM
      1 C1          2.8102   -7.7153   -0.9713 C.3       1 <0>        -0.1376
      2 C2          3.3577   -7.4139    0.4252 C.3       1 <0>         0.0133
      3 C3          4.1940   -8.5990    0.9119 C.3       1 <0>        -0.1376
      4 C4          2.1934   -7.1808    1.3901 C.3       1 <0>        -0.1381
      5 C5          4.2200   -6.1792    0.3709 C.2       1 <0>         0.1053
      6 C6          3.7582   -4.8645    0.2632 C.2       1 <0>        -0.2579
      7 C7          4.8422   -4.0410    0.2446 C.2       1 <0>         0.3174
      8 N1          5.9511   -4.8242    0.3332 N.pl3     1 <0>        -0.3315
      9 N2          5.5280   -6.1570    0.4158 N.2       1 <0>        -0.2734
     10 C8          7.2808   -4.3767    0.3431 C.ar      1 <0>         0.0929
     11 C9          7.6482   -3.2754   -0.4185 C.ar      1 <0>        -0.0978
     12 C10         8.9554   -2.8319   -0.4052 C.ar      1 <0>        -0.1730
     13 C11         9.9055   -3.4939    0.3620 C.ar      1 <0>         0.2176
     14 C12         9.5387   -4.5988    1.1198 C.ar      1 <0>        -0.1743
     15 C13         8.2302   -5.0386    1.1101 C.ar      1 <0>        -0.0546
     16 N3         11.2308   -3.0485    0.3712 N.pl3     1 <0>        -0.8734
     17 N4          4.8201   -2.6498    0.1465 N.am      1 <0>        -0.6548
     18 C14         3.6431   -1.9990    0.0592 C.2       1 <0>         0.7177
     19 O1          2.6005   -2.6246    0.0660 O.2       1 <0>        -0.5324
     20 N5          3.6217   -0.6548   -0.0355 N.am      1 <0>        -0.6721
     21 C15         2.4008    0.0296   -0.0074 C.ar      1 <0>         0.1910
     22 C16         1.2964   -0.5429    0.6096 C.ar      1 <0>        -0.1156
     23 C17         0.0929    0.1344    0.6365 C.ar      1 <0>        -0.0760
     24 C18        -0.0140    1.3820    0.0498 C.ar      1 <0>        -0.1169
     25 C19         1.0838    1.9565   -0.5662 C.ar      1 <0>        -0.0089
     26 C20         2.2919    1.2831   -0.5964 C.ar      1 <0>        -0.0696
     27 Cl1         3.6697    2.0036   -1.3685 Cl        1 <0>        -0.0444
     28 Cl2         0.9451    3.5229   -1.3014 Cl        1 <0>        -0.0412
     29 H1          3.6396   -7.8814   -1.6587 H         1 <0>         0.0561
     30 H2          2.1864   -8.6084   -0.9320 H         1 <0>         0.0647
     31 H3          2.2143   -6.8710   -1.3180 H         1 <0>         0.0611
     32 H4          4.5841   -8.3842    1.9068 H         1 <0>         0.0565
     33 H5          3.5703   -9.4921    0.9512 H         1 <0>         0.0595
     34 H6          5.0235   -8.7651    0.2245 H         1 <0>         0.0609
     35 H7          1.5976   -6.3364    1.0434 H         1 <0>         0.0631
     36 H8          1.5697   -8.0738    1.4294 H         1 <0>         0.0638
     37 H9          2.5835   -6.9660    2.3850 H         1 <0>         0.0567
     38 H10         2.7247   -4.5564    0.2057 H         1 <0>         0.1783
     39 H11         6.9103   -2.7633   -1.0182 H         1 <0>         0.1230
     40 H12         9.2403   -1.9730   -0.9948 H         1 <0>         0.1320
     41 H13        10.2770   -5.1135    1.7167 H         1 <0>         0.1321
     42 H14         7.9451   -5.8979    1.6990 H         1 <0>         0.1360
     43 H15        11.8942   -3.5110    0.9067 H         1 <0>         0.4017
     44 H16        11.4868   -2.2769   -0.1580 H         1 <0>         0.4009
     45 H17         5.6518   -2.1507    0.1411 H         1 <0>         0.4103
     46 H18         4.4523   -0.1615   -0.1232 H         1 <0>         0.4129
     47 H19         1.3783   -1.5174    1.0679 H         1 <0>         0.1646
     48 H20        -0.7658   -0.3110    1.1167 H         1 <0>         0.1460
     49 H21        -0.9576    1.9072    0.0686 H         1 <0>         0.1457
@<TRIPOS>BOND
     1    1    2 1
     2    1   29 1
     3    1   30 1
     4    1   31 1
     5    2    3 1
     6    2    4 1
     7    2    5 1
     8    3   32 1
     9    3   33 1
    10    3   34 1
    11    4   35 1
    12    4   36 1
    13    4   37 1
    14    5    9 2
    15    5    6 1
    16    6    7 2
    17    6   38 1
    18    7    8 1
    19    7   17 1
    20    8    9 1
    21    8   10 1
    22   10   15 ar
    23   10   11 ar
    24   11   12 ar
    25   11   39 1
    26   12   13 ar
    27   12   40 1
    28   13   14 ar
    29   13   16 1
    30   14   15 ar
    31   14   41 1
    32   15   42 1
    33   16   43 1
    34   16   44 1
    35   17   18 am
    36   17   45 1
    37   18   19 2
    38   18   20 am
    39   20   21 1
    40   20   46 1
    41   21   26 ar
    42   21   22 ar
    43   22   23 ar
    44   22   47 1
    45   23   24 ar
    46   23   48 1
    47   24   25 ar
    48   24   49 1
    49   25   26 ar
    50   25   28 1
    51   26   27 1
@<TRIPOS>MOLECULE
ZINC03832067
   39    42     0     0     0
SMALL
USER_CHARGES

@<TRIPOS>ATOM
      1 C1         -0.9264   -7.7187    2.2731 C.ar      1 <0>        -0.1190
      2 C2          0.0379   -7.8689    1.2922 C.ar      1 <0>        -0.1107
      3 C3          0.6032   -6.7583    0.7006 C.ar      1 <0>        -0.1012
      4 C4          0.2006   -5.4808    1.0938 C.ar      1 <0>        -0.0195
      5 C5         -0.7686   -5.3363    2.0881 C.ar      1 <0>        -0.1224
      6 C6         -1.3303   -6.4554    2.6673 C.ar      1 <0>        -0.1111
      7 C7          0.8023   -4.2864    0.4646 C.2       1 <0>         0.0684
      8 C8          1.7559   -4.2966   -0.5066 C.2       1 <0>        -0.1482
      9 C9          2.0523   -2.9551   -0.8268 C.2       1 <0>        -0.1130
     10 C10         1.2514   -2.1576   -0.0219 C.2       1 <0>         0.0844
     11 N1          0.4964   -2.9834    0.7669 N.pl3     1 <0>        -0.5373
     12 H1         -0.1508   -2.6947    1.4292 H         1 <0>         0.4183
     13 C11         1.2230   -0.6822   -0.0133 C.ar      1 <0>        -0.0136
     14 C12         2.4175    0.0428   -0.0207 C.ar      1 <0>        -0.0845
     15 C13         2.3842    1.4214   -0.0130 C.ar      1 <0>        -0.1003
     16 C14         1.1714    2.0878    0.0021 C.ar      1 <0>        -0.1029
     17 C15        -0.0166    1.3764    0.0096 C.ar      1 <0>        -0.0312
     18 C16         0.0021   -0.0041    0.0020 C.ar      1 <0>        -0.1036
     19 Cl1        -1.5327    2.2222    0.0214 Cl        1 <0>        -0.0635
     20 C17         3.0336   -2.4863   -1.8322 C.ar      1 <0>         0.0389
     21 C18         2.6763   -1.5398   -2.7986 C.ar      1 <0>        -0.1606
     22 C19         3.6226   -1.1276   -3.7129 C.ar      1 <0>         0.1013
     23 N2          4.8466   -1.6209   -3.6903 N.ar      1 <0>        -0.4891
     24 C20         5.2231   -2.5186   -2.7993 C.ar      1 <0>         0.1006
     25 C21         4.3419   -2.9822   -1.8453 C.ar      1 <0>        -0.1647
     26 H2         -1.3660   -8.5915    2.7329 H         1 <0>         0.1252
     27 H3          0.3484   -8.8578    0.9889 H         1 <0>         0.1284
     28 H4          1.3552   -6.8769   -0.0654 H         1 <0>         0.1291
     29 H5         -1.0812   -4.3508    2.4000 H         1 <0>         0.1148
     30 H6         -2.0836   -6.3451    3.4332 H         1 <0>         0.1255
     31 H7          2.2045   -5.1728   -0.9510 H         1 <0>         0.1468
     32 H8          3.3649   -0.4755   -0.0329 H         1 <0>         0.1312
     33 H9          3.3069    1.9826   -0.0188 H         1 <0>         0.1382
     34 H10         1.1514    3.1676    0.0077 H         1 <0>         0.1374
     35 H11        -0.9249   -0.5581    0.0075 H         1 <0>         0.1319
     36 H12         1.6754   -1.1350   -2.8256 H         1 <0>         0.1305
     37 H13         3.3575   -0.3944   -4.4602 H         1 <0>         0.1544
     38 H14         6.2350   -2.8956   -2.8177 H         1 <0>         0.1558
     39 H15         4.6570   -3.7167   -1.1189 H         1 <0>         0.1353
@<TRIPOS>BOND
     1    1    6 ar
     2    1    2 ar
     3    1   26 1
     4    2    3 ar
     5    2   27 1
     6    3    4 ar
     7    3   28 1
     8    4    5 ar
     9    4    7 1
    10    5    6 ar
    11    5   29 1
    12    6   30 1
    13    7   11 1
    14    7    8 2
    15    8    9 1
    16    8   31 1
    17    9   10 2
    18    9   20 1
    19   10   11 1
    20   10   13 1
    21   11   12 1
    22   13   18 ar
    23   13   14 ar
    24   14   15 ar
    25   14   32 1
    26   15   16 ar
    27   15   33 1
    28   16   17 ar
    29   16   34 1
    30   17   18 ar
    31   17   19 1
    32   18   35 1
    33   20   25 ar
    34   20   21 ar
    35   21   22 ar
    36   21   36 1
    37   22   23 ar
    38   22   37 1
    39   23   24 ar
    40   24   25 ar
    41   24   38 1
    42   25   39 1
@<TRIPOS>MOLECULE
ZINC03832069
   39    42     0     0     0
SMALL
USER_CHARGES

@<TRIPOS>ATOM
      1 C1          5.0381    0.5072    0.7367 C.ar      1 <0>        -0.1176
      2 C2          3.9908   -0.3966    0.7648 C.ar      1 <0>        -0.1109
      3 C3          2.6946    0.0390    0.5827 C.ar      1 <0>        -0.0998
      4 C4          2.4408    1.3950    0.3693 C.ar      1 <0>        -0.0219
      5 C5          3.5026    2.3008    0.3365 C.ar      1 <0>        -0.1212
      6 C6          4.7934    1.8527    0.5262 C.ar      1 <0>        -0.1114
      7 C7          1.0546    1.8688    0.1730 C.2       1 <0>         0.0753
      8 C8         -0.0593    1.0866    0.1772 C.2       1 <0>        -0.1494
      9 C9         -1.1701    1.9257   -0.0513 C.2       1 <0>        -0.1031
     10 C10        -0.6840    3.2190   -0.1800 C.2       1 <0>         0.0735
     11 N1          0.6774    3.1699   -0.0446 N.pl3     1 <0>        -0.5353
     12 H1          1.2773    3.9306   -0.0947 H         1 <0>         0.4194
     13 C11        -1.4902    4.4304   -0.4255 C.ar      1 <0>         0.0364
     14 C12        -2.4739    4.4289   -1.4172 C.ar      1 <0>        -0.1379
     15 C13        -3.2294    5.5643   -1.6385 C.ar      1 <0>         0.1408
     16 C14        -3.0052    6.7065   -0.8868 C.ar      1 <0>        -0.1874
     17 C15        -2.0269    6.7159    0.0945 C.ar      1 <0>         0.1391
     18 C16        -1.2688    5.5849    0.3290 C.ar      1 <0>        -0.1587
     19 F1         -1.8136    7.8334    0.8231 F         1 <0>        -0.1262
     20 F2         -4.1847    5.5629   -2.5938 F         1 <0>        -0.1245
     21 C17        -2.5879    1.5059   -0.1347 C.ar      1 <0>         0.0344
     22 C18        -3.5570    2.0777    0.6969 C.ar      1 <0>        -0.1610
     23 C19        -4.8664    1.6608    0.5827 C.ar      1 <0>         0.1018
     24 N2         -5.2075    0.7296   -0.2881 N.ar      1 <0>        -0.4872
     25 C20        -4.3242    0.1613   -1.0872 C.ar      1 <0>         0.1013
     26 C21        -2.9942    0.5225   -1.0432 C.ar      1 <0>        -0.1629
     27 H2          6.0510    0.1610    0.8802 H         1 <0>         0.1256
     28 H3          4.1886   -1.4454    0.9299 H         1 <0>         0.1287
     29 H4          1.8780   -0.6674    0.6055 H         1 <0>         0.1296
     30 H5          3.3134    3.3505    0.1674 H         1 <0>         0.1152
     31 H6          5.6153    2.5531    0.5058 H         1 <0>         0.1259
     32 H7         -0.0872    0.0170    0.3242 H         1 <0>         0.1484
     33 H8         -2.6464    3.5408   -2.0070 H         1 <0>         0.1455
     34 H9         -3.5950    7.5932   -1.0667 H         1 <0>         0.1531
     35 H10        -0.5064    5.5935    1.0938 H         1 <0>         0.1427
     36 H11        -3.2842    2.8370    1.4149 H         1 <0>         0.1316
     37 H12        -5.6223    2.0991    1.2174 H         1 <0>         0.1552
     38 H13        -4.6474   -0.5971   -1.7849 H         1 <0>         0.1566
     39 H14        -2.2768    0.0535   -1.7003 H         1 <0>         0.1363
@<TRIPOS>BOND
     1    1    6 ar
     2    1    2 ar
     3    1   27 1
     4    2    3 ar
     5    2   28 1
     6    3    4 ar
     7    3   29 1
     8    4    5 ar
     9    4    7 1
    10    5    6 ar
    11    5   30 1
    12    6   31 1
    13    7   11 1
    14    7    8 2
    15    8    9 1
    16    8   32 1
    17    9   10 2
    18    9   21 1
    19   10   11 1
    20   10   13 1
    21   11   12 1
    22   13   18 ar
    23   13   14 ar
    24   14   15 ar
    25   14   33 1
    26   15   16 ar
    27   15   20 1
    28   16   17 ar
    29   16   34 1
    30   17   18 ar
    31   17   19 1
    32   18   35 1
    33   21   26 ar
    34   21   22 ar
    35   22   23 ar
    36   22   36 1
    37   23   24 ar
    38   23   37 1
    39   24   25 ar
    40   25   26 ar
    41   25   38 1
    42   26   39 1
@<TRIPOS>MOLECULE
ZINC03832071
   39    42     0     0     0
SMALL
USER_CHARGES

@<TRIPOS>ATOM
      1 C1          5.0380    0.5077    0.7379 C.ar      1 <0>        -0.1180
      2 C2          3.9909   -0.3963    0.7654 C.ar      1 <0>        -0.1109
      3 C3          2.6947    0.0392    0.5827 C.ar      1 <0>        -0.1002
      4 C4          2.4408    1.3952    0.3694 C.ar      1 <0>        -0.0211
      5 C5          3.5025    2.3010    0.3367 C.ar      1 <0>        -0.1215
      6 C6          4.7933    1.8532    0.5274 C.ar      1 <0>        -0.1113
      7 C7          1.0546    1.8690    0.1730 C.2       1 <0>         0.0737
      8 C8         -0.0592    1.0867    0.1772 C.2       1 <0>        -0.1490
      9 C9         -1.1701    1.9257   -0.0513 C.2       1 <0>        -0.1057
     10 C10        -0.6840    3.2190   -0.1800 C.2       1 <0>         0.0770
     11 N1          0.6774    3.1701   -0.0446 N.pl3     1 <0>        -0.5360
     12 H1          1.2772    3.9308   -0.0943 H         1 <0>         0.4189
     13 C11        -1.4903    4.4304   -0.4255 C.ar      1 <0>         0.0027
     14 C12        -2.4741    4.4292   -1.4173 C.ar      1 <0>        -0.0782
     15 C13        -3.2281    5.5642   -1.6386 C.ar      1 <0>        -0.0184
     16 C14        -3.0038    6.7055   -0.8873 C.ar      1 <0>        -0.0975
     17 C15        -2.0266    6.7151    0.0938 C.ar      1 <0>        -0.0193
     18 C16        -1.2692    5.5851    0.3289 C.ar      1 <0>        -0.0995
     19 Cl1        -1.7530    8.1513    1.0298 Cl        1 <0>        -0.0487
     20 Cl2        -4.4553    5.5629   -2.8666 Cl        1 <0>        -0.0458
     21 C17        -2.5879    1.5059   -0.1343 C.ar      1 <0>         0.0350
     22 C18        -3.5569    2.0780    0.6973 C.ar      1 <0>        -0.1607
     23 C19        -4.8662    1.6607    0.5838 C.ar      1 <0>         0.1025
     24 N2         -5.2075    0.7293   -0.2867 N.ar      1 <0>        -0.4868
     25 C20        -4.3244    0.1611   -1.0861 C.ar      1 <0>         0.1014
     26 C21        -2.9944    0.5222   -1.0424 C.ar      1 <0>        -0.1631
     27 H2          6.0509    0.1616    0.8818 H         1 <0>         0.1254
     28 H3          4.1887   -1.4451    0.9305 H         1 <0>         0.1286
     29 H4          1.8782   -0.6673    0.6051 H         1 <0>         0.1294
     30 H5          3.3133    3.3507    0.1673 H         1 <0>         0.1150
     31 H6          5.6152    2.5535    0.5071 H         1 <0>         0.1258
     32 H7         -0.0871    0.0171    0.3242 H         1 <0>         0.1478
     33 H8         -2.6472    3.5409   -2.0068 H         1 <0>         0.1427
     34 H9         -3.5934    7.5923   -1.0675 H         1 <0>         0.1485
     35 H10        -0.5071    5.5939    1.0941 H         1 <0>         0.1397
     36 H11        -3.2839    2.8374    1.4151 H         1 <0>         0.1308
     37 H12        -5.6219    2.0987    1.2191 H         1 <0>         0.1547
     38 H13        -4.6479   -0.5973   -1.7837 H         1 <0>         0.1562
     39 H14        -2.2772    0.0530   -1.6995 H         1 <0>         0.1358
@<TRIPOS>BOND
     1    1    6 ar
     2    1    2 ar
     3    1   27 1
     4    2    3 ar
     5    2   28 1
     6    3    4 ar
     7    3   29 1
     8    4    5 ar
     9    4    7 1
    10    5    6 ar
    11    5   30 1
    12    6   31 1
    13    7   11 1
    14    7    8 2
    15    8    9 1
    16    8   32 1
    17    9   10 2
    18    9   21 1
    19   10   11 1
    20   10   13 1
    21   11   12 1
    22   13   18 ar
    23   13   14 ar
    24   14   15 ar
    25   14   33 1
    26   15   16 ar
    27   15   20 1
    28   16   17 ar
    29   16   34 1
    30   17   18 ar
    31   17   19 1
    32   18   35 1
    33   21   26 ar
    34   21   22 ar
    35   22   23 ar
    36   22   36 1
    37   23   24 ar
    38   23   37 1
    39   24   25 ar
    40   25   26 ar
    41   25   38 1
    42   26   39 1
@<TRIPOS>MOLECULE
ZINC03832072
   39    42     0     0     0
SMALL
USER_CHARGES

@<TRIPOS>ATOM
      1 C1         -8.5085    0.6402    2.1548 C.ar      1 <0>        -0.1108
      2 C2         -7.4152    0.8782    2.9692 C.ar      1 <0>        -0.1165
      3 C3         -6.1436    0.8924    2.4354 C.ar      1 <0>        -0.1103
      4 C4         -5.9607    0.6664    1.0689 C.ar      1 <0>        -0.0297
      5 C5         -7.0696    0.4330    0.2517 C.ar      1 <0>        -0.0871
      6 C6         -8.3349    0.4151    0.8005 C.ar      1 <0>        -0.1150
      7 C7         -4.6033    0.6800    0.4904 C.2       1 <0>         0.0926
      8 C8         -4.0886   -0.2428   -0.4087 C.2       1 <0>        -0.1203
      9 C9         -2.7644    0.1515   -0.6946 C.2       1 <0>        -0.1364
     10 C10        -2.5081    1.2807    0.0209 C.2       1 <0>         0.0543
     11 N1         -3.6254    1.6033    0.7487 N.pl3     1 <0>        -0.5353
     12 H1         -3.7096    2.3622    1.3469 H         1 <0>         0.4182
     13 C11        -1.2349    2.0313    0.0189 C.ar      1 <0>        -0.0569
     14 C12        -1.2437    3.4270    0.0314 C.ar      1 <0>        -0.0868
     15 C13        -0.0520    4.1218    0.0233 C.ar      1 <0>        -0.1251
     16 C14         1.1516    3.4390    0.0086 C.ar      1 <0>        -0.0862
     17 C15         1.1699    2.0561    0.0019 C.ar      1 <0>        -0.1493
     18 C16        -0.0162    1.3468    0.0094 C.ar      1 <0>         0.1189
     19 F1          0.0021   -0.0041    0.0020 F         1 <0>        -0.1285
     20 C17        -4.7959   -1.4197   -0.9640 C.ar      1 <0>         0.0417
     21 C18        -5.4589   -2.3218   -0.1248 C.ar      1 <0>        -0.1592
     22 C19        -6.1087   -3.4016   -0.6842 C.ar      1 <0>         0.1005
     23 N2         -6.1019   -3.5946   -1.9898 N.ar      1 <0>        -0.4900
     24 C20        -5.4847   -2.7709   -2.8159 C.ar      1 <0>         0.0999
     25 C21        -4.8145   -1.6631   -2.3417 C.ar      1 <0>        -0.1655
     26 H2         -9.5019    0.6298    2.5783 H         1 <0>         0.1255
     27 H3         -7.5581    1.0527    4.0254 H         1 <0>         0.1262
     28 H4         -5.2912    1.0775    3.0723 H         1 <0>         0.1203
     29 H5         -6.9360    0.2619   -0.8063 H         1 <0>         0.1237
     30 H6         -9.1926    0.2301    0.1708 H         1 <0>         0.1270
     31 H7         -2.0787   -0.3514   -1.3604 H         1 <0>         0.1451
     32 H8         -2.1818    3.9621    0.0428 H         1 <0>         0.1297
     33 H9         -0.0584    5.2017    0.0280 H         1 <0>         0.1337
     34 H10         2.0812    3.9888    0.0020 H         1 <0>         0.1364
     35 H11         2.1128    1.5295   -0.0095 H         1 <0>         0.1410
     36 H12        -5.4646   -2.1726    0.9449 H         1 <0>         0.1304
     37 H13        -6.6267   -4.1013   -0.0451 H         1 <0>         0.1540
     38 H14        -5.5045   -2.9675   -3.8777 H         1 <0>         0.1554
     39 H15        -4.3119   -0.9931   -3.0235 H         1 <0>         0.1344
@<TRIPOS>BOND
     1    1    6 ar
     2    1    2 ar
     3    1   26 1
     4    2    3 ar
     5    2   27 1
     6    3    4 ar
     7    3   28 1
     8    4    5 ar
     9    4    7 1
    10    5    6 ar
    11    5   29 1
    12    6   30 1
    13    7   11 1
    14    7    8 2
    15    8    9 1
    16    8   20 1
    17    9   10 2
    18    9   31 1
    19   10   11 1
    20   10   13 1
    21   11   12 1
    22   13   18 ar
    23   13   14 ar
    24   14   15 ar
    25   14   32 1
    26   15   16 ar
    27   15   33 1
    28   16   17 ar
    29   16   34 1
    30   17   18 ar
    31   17   35 1
    32   18   19 1
    33   20   25 ar
    34   20   21 ar
    35   21   22 ar
    36   21   36 1
    37   22   23 ar
    38   22   37 1
    39   23   24 ar
    40   24   25 ar
    41   24   38 1
    42   25   39 1
@<TRIPOS>MOLECULE
ZINC03832073
   39    42     0     0     0
SMALL
USER_CHARGES

@<TRIPOS>ATOM
      1 C1         -1.4203   -3.9760   -1.7092 C.ar      1 <0>        -0.0732
      2 C2         -2.2219   -5.0729   -1.9483 C.ar      1 <0>        -0.1514
      3 C3         -3.1023   -5.5160   -0.9743 C.ar      1 <0>         0.1018
      4 C4         -3.1777   -4.8647    0.2463 C.ar      1 <0>        -0.1507
      5 C5         -2.3760   -3.7706    0.4977 C.ar      1 <0>        -0.0692
      6 C6         -1.4881   -3.3202   -0.4797 C.ar      1 <0>        -0.0068
      7 C7         -0.6254   -2.1465   -0.2153 C.2       1 <0>        -0.2402
      8 C8          0.7547   -2.1429   -0.1094 C.2       1 <0>         0.2412
      9 N1          1.1587   -0.8532    0.1343 N.pl3     1 <0>        -0.4870
     10 H1          2.0781   -0.5657    0.2482 H         1 <0>         0.4460
     11 N2          0.0376   -0.0197    0.1953 N.am      1 <0>        -0.3482
     12 C9         -1.0674   -0.7627   -0.0147 C.2       1 <0>         0.5465
     13 O1         -2.2165   -0.3605   -0.0336 O.2       1 <0>        -0.5037
     14 C10         0.0596    1.3592    0.4296 C.ar      1 <0>         0.1667
     15 C11        -1.1275    2.0797    0.4543 C.ar      1 <0>        -0.1265
     16 C12        -1.1033    3.4401    0.6912 C.ar      1 <0>        -0.0733
     17 C13         0.1032    4.0872    0.8928 C.ar      1 <0>        -0.0529
     18 C14         1.2879    3.3726    0.8634 C.ar      1 <0>        -0.0769
     19 C15         1.2691    2.0112    0.6322 C.ar      1 <0>        -0.1459
     20 Cl1         0.1305    5.7985    1.1837 Cl        1 <0>        -0.0602
     21 C16         1.6382   -3.3189   -0.2407 C.ar      1 <0>        -0.0075
     22 C17         1.3467   -4.5164    0.4247 C.ar      1 <0>        -0.1267
     23 C18         2.1975   -5.5919    0.2692 C.ar      1 <0>         0.1090
     24 N3          3.2763   -5.4991   -0.4839 N.ar      1 <0>        -0.4700
     25 C19         3.5909   -4.3896   -1.1237 C.ar      1 <0>         0.1068
     26 C20         2.7943   -3.2666   -1.0296 C.ar      1 <0>        -0.1513
     27 F1         -3.8896   -6.5870   -1.2156 F         1 <0>        -0.1386
     28 H2         -0.7381   -3.6282   -2.4709 H         1 <0>         0.1296
     29 H3         -2.1667   -5.5842   -2.8979 H         1 <0>         0.1371
     30 H4         -3.8655   -5.2140    1.0021 H         1 <0>         0.1383
     31 H5         -2.4357   -3.2635    1.4494 H         1 <0>         0.1329
     32 H6         -2.0690    1.5759    0.2922 H         1 <0>         0.1683
     33 H7         -2.0265    4.0000    0.7150 H         1 <0>         0.1465
     34 H8          2.2281    3.8801    1.0210 H         1 <0>         0.1434
     35 H9          2.1940    1.4541    0.6087 H         1 <0>         0.1302
     36 H10         0.4676   -4.5982    1.0466 H         1 <0>         0.1454
     37 H11         1.9794   -6.5209    0.7749 H         1 <0>         0.1661
     38 H12         4.4845   -4.3593   -1.7295 H         1 <0>         0.1645
     39 H13         3.0582   -2.3614   -1.5564 H         1 <0>         0.1401
@<TRIPOS>BOND
     1    1    6 ar
     2    1    2 ar
     3    1   28 1
     4    2    3 ar
     5    2   29 1
     6    3    4 ar
     7    3   27 1
     8    4    5 ar
     9    4   30 1
    10    5    6 ar
    11    5   31 1
    12    6    7 1
    13    7   12 1
    14    7    8 2
    15    8    9 1
    16    8   21 1
    17    9   10 1
    18    9   11 1
    19   11   12 am
    20   11   14 1
    21   12   13 2
    22   14   19 ar
    23   14   15 ar
    24   15   16 ar
    25   15   32 1
    26   16   17 ar
    27   16   33 1
    28   17   18 ar
    29   17   20 1
    30   18   19 ar
    31   18   34 1
    32   19   35 1
    33   21   26 ar
    34   21   22 ar
    35   22   23 ar
    36   22   36 1
    37   23   24 ar
    38   23   37 1
    39   24   25 ar
    40   25   26 ar
    41   25   38 1
    42   26   39 1
@<TRIPOS>MOLECULE
ZINC03832074
   37    40     0     0     0
SMALL
USER_CHARGES

@<TRIPOS>ATOM
      1 C1         -0.8889   -4.5679    0.5825 C.ar      1 <0>        -0.0460
      2 C2         -1.6352   -5.7247    0.5042 C.ar      1 <0>        -0.1486
      3 C3         -2.7524   -5.7777   -0.3146 C.ar      1 <0>         0.1324
      4 C4         -3.1299   -4.6677   -1.0539 C.ar      1 <0>        -0.1506
      5 C5         -2.3947   -3.5037   -0.9793 C.ar      1 <0>        -0.0667
      6 C6         -1.2676   -3.4443   -0.1561 C.ar      1 <0>        -0.0777
      7 C7         -0.4764   -2.2011   -0.0718 C.2       1 <0>         0.1579
      8 C8          0.8990   -2.1210   -0.1520 C.2       1 <0>        -0.0603
      9 C9          1.2384   -0.6971   -0.0188 C.ar      1 <0>        -0.1352
     10 C10         2.4409    0.0160   -0.0184 C.ar      1 <0>         0.1037
     11 C11         2.3891    1.3762    0.1336 C.ar      1 <0>        -0.2261
     12 C12         1.1516    2.0026    0.2818 C.ar      1 <0>         0.5087
     13 C13         0.0220   -0.0099    0.1348 C.ar      1 <0>         0.3072
     14 N1         -0.9917   -0.9390    0.0990 N.pl3     1 <0>        -0.5500
     15 H1         -1.9357   -0.7325    0.1828 H         1 <0>         0.4353
     16 N2          1.1021    3.3831    0.4359 N.pl3     1 <0>        -0.8159
     17 C14         1.8430   -3.2437   -0.3353 C.ar      1 <0>         0.0078
     18 C15         2.7477   -3.5957    0.6742 C.ar      1 <0>        -0.1590
     19 C16         3.6069   -4.6525    0.4626 C.ar      1 <0>         0.1084
     20 N3          3.5913   -5.3216   -0.6751 N.ar      1 <0>        -0.4733
     21 C17         2.7588   -5.0199   -1.6541 C.ar      1 <0>         0.1101
     22 C18         1.8617   -3.9814   -1.5257 C.ar      1 <0>        -0.1481
     23 F1         -3.4763   -6.9158   -0.3921 F         1 <0>        -0.1254
     24 H2         -0.0157   -4.5293    1.2169 H         1 <0>         0.1395
     25 H3         -1.3462   -6.5925    1.0784 H         1 <0>         0.1488
     26 H4         -4.0015   -4.7148   -1.6899 H         1 <0>         0.1477
     27 H5         -2.6894   -2.6396   -1.5563 H         1 <0>         0.1348
     28 H6          3.3864   -0.4927   -0.1346 H         1 <0>         0.1747
     29 H7          3.2985    1.9586    0.1389 H         1 <0>         0.1873
     30 H8          0.2470    3.8291    0.5398 H         1 <0>         0.4213
     31 H9          1.9226    3.9005    0.4395 H         1 <0>         0.4420
     32 H10         2.7689   -3.0500    1.6060 H         1 <0>         0.1386
     33 H11         4.3052   -4.9344    1.2368 H         1 <0>         0.1629
     34 H12         2.7812   -5.5944   -2.5684 H         1 <0>         0.1624
     35 H13         1.1833   -3.7403   -2.3307 H         1 <0>         0.1372
     36 N4         -0.0426    1.3491    0.2874 N.ar      1 <0>        -0.5459
     37 H14        -0.9353    1.8441    0.3991 H         1 <0>         0.4600
@<TRIPOS>BOND
     1    1    6 ar
     2    1    2 ar
     3    1   24 1
     4    2    3 ar
     5    2   25 1
     6    3    4 ar
     7    3   23 1
     8    4    5 ar
     9    4   26 1
    10    5    6 ar
    11    5   27 1
    12    6    7 1
    13    7   14 1
    14    7    8 2
    15    8    9 1
    16    8   17 1
    17    9   13 ar
    18    9   10 ar
    19   10   11 ar
    20   10   28 1
    21   11   12 ar
    22   11   29 1
    23   12   16 1
    24   12   36 ar
    25   13   14 1
    26   13   36 ar
    27   14   15 1
    28   16   30 1
    29   16   31 1
    30   17   22 ar
    31   17   18 ar
    32   18   19 ar
    33   18   32 1
    34   19   20 ar
    35   19   33 1
    36   20   21 ar
    37   21   22 ar
    38   21   34 1
    39   22   35 1
    40   36   37 1
@<TRIPOS>MOLECULE
ZINC03832075
   39    42     0     0     0
SMALL
USER_CHARGES

@<TRIPOS>ATOM
      1 C1         -8.9223    3.7056    0.1087 C.ar      1 <0>        -0.1098
      2 C2         -8.1343    2.9608   -0.7511 C.ar      1 <0>        -0.1165
      3 C3         -6.7670    3.1410   -0.7693 C.ar      1 <0>        -0.1097
      4 C4         -6.1779    4.0778    0.0835 C.ar      1 <0>        -0.0322
      5 C5         -6.9791    4.8217    0.9533 C.ar      1 <0>        -0.0864
      6 C6         -8.3458    4.6356    0.9558 C.ar      1 <0>        -0.1149
      7 C7         -4.7157    4.2763    0.0698 C.2       1 <0>         0.0978
      8 C8         -4.0565    5.4973    0.0690 C.2       1 <0>        -0.1206
      9 C9         -2.6731    5.2211    0.0539 C.2       1 <0>        -0.1398
     10 C10        -2.5242    3.8682    0.0461 C.2       1 <0>         0.0552
     11 N1         -3.7678    3.2888    0.0498 N.pl3     1 <0>        -0.5363
     12 H1         -3.9462    2.3353    0.0419 H         1 <0>         0.4186
     13 C11        -1.2360    3.1434    0.0298 C.ar      1 <0>         0.0161
     14 C12        -1.2174    1.7474    0.0173 C.ar      1 <0>        -0.1356
     15 C13        -0.0126    1.0758    0.0080 C.ar      1 <0>        -0.0790
     16 C14         1.1771    1.7820    0.0004 C.ar      1 <0>        -0.1565
     17 C15         1.1669    3.1676    0.0070 C.ar      1 <0>         0.1113
     18 C16        -0.0337    3.8517    0.0217 C.ar      1 <0>        -0.1408
     19 F1          2.3325    3.8507   -0.0013 F         1 <0>        -0.1348
     20 C17        -4.6864    6.8377    0.0815 C.ar      1 <0>         0.0400
     21 C18        -5.6959    7.1661   -0.8299 C.ar      1 <0>        -0.1591
     22 C19        -6.2587    8.4240   -0.7797 C.ar      1 <0>         0.1008
     23 N2         -5.8499    9.3144    0.1045 N.ar      1 <0>        -0.4895
     24 C20        -4.8975    9.0471    0.9781 C.ar      1 <0>         0.1002
     25 C21        -4.2843    7.8123    1.0014 C.ar      1 <0>        -0.1654
     26 H2         -9.9925    3.5605    0.1184 H         1 <0>         0.1258
     27 H3         -8.5911    2.2369   -1.4098 H         1 <0>         0.1266
     28 H4         -6.1533    2.5596   -1.4413 H         1 <0>         0.1206
     29 H5         -6.5299    5.5442    1.6186 H         1 <0>         0.1239
     30 H6         -8.9669    5.2136    1.6240 H         1 <0>         0.1273
     31 H7         -1.8769    5.9507    0.0497 H         1 <0>         0.1469
     32 H8         -2.1449    1.1941    0.0190 H         1 <0>         0.1227
     33 H9          0.0021   -0.0041    0.0020 H         1 <0>         0.1370
     34 H10         2.1175    1.2511   -0.0111 H         1 <0>         0.1387
     35 H11        -0.0415    4.9317    0.0265 H         1 <0>         0.1420
     36 H12        -6.0318    6.4440   -1.5593 H         1 <0>         0.1307
     37 H13        -7.0411    8.6856   -1.4766 H         1 <0>         0.1542
     38 H14        -4.5940    9.8060    1.6841 H         1 <0>         0.1556
     39 H15        -3.5055    7.6005    1.7190 H         1 <0>         0.1349
@<TRIPOS>BOND
     1    1    6 ar
     2    1    2 ar
     3    1   26 1
     4    2    3 ar
     5    2   27 1
     6    3    4 ar
     7    3   28 1
     8    4    5 ar
     9    4    7 1
    10    5    6 ar
    11    5   29 1
    12    6   30 1
    13    7   11 1
    14    7    8 2
    15    8    9 1
    16    8   20 1
    17    9   10 2
    18    9   31 1
    19   10   11 1
    20   10   13 1
    21   11   12 1
    22   13   18 ar
    23   13   14 ar
    24   14   15 ar
    25   14   32 1
    26   15   16 ar
    27   15   33 1
    28   16   17 ar
    29   16   34 1
    30   17   18 ar
    31   17   19 1
    32   18   35 1
    33   20   25 ar
    34   20   21 ar
    35   21   22 ar
    36   21   36 1
    37   22   23 ar
    38   22   37 1
    39   23   24 ar
    40   24   25 ar
    41   24   38 1
    42   25   39 1
@<TRIPOS>MOLECULE
ZINC03832078
   40    43     0     0     0
SMALL
USER_CHARGES

@<TRIPOS>ATOM
      1 C1          2.1194   10.8723    2.3476 C.ar      1 <0>        -0.1189
      2 C2          1.1367   11.0306    1.3865 C.ar      1 <0>        -0.1108
      3 C3          0.5637    9.9250    0.7929 C.ar      1 <0>        -0.1010
      4 C4          0.9775    8.6444    1.1638 C.ar      1 <0>        -0.0201
      5 C5          1.9657    8.4918    2.1380 C.ar      1 <0>        -0.1223
      6 C6          2.5344    9.6059    2.7195 C.ar      1 <0>        -0.1113
      7 C7          0.3676    7.4553    0.5324 C.2       1 <0>         0.0693
      8 C8         -0.6041    7.4735   -0.4205 C.2       1 <0>        -0.1482
      9 C9         -0.9030    6.1347   -0.7498 C.2       1 <0>        -0.1119
     10 C10        -0.0850    5.3307    0.0310 C.2       1 <0>         0.0826
     11 N1          0.6828    6.1499    0.8141 N.pl3     1 <0>        -0.5376
     12 H1          1.3432    5.8558    1.4608 H         1 <0>         0.4184
     13 C11        -0.0530    3.8552    0.0233 C.ar      1 <0>        -0.0256
     14 C12        -1.2473    3.1282    0.0308 C.ar      1 <0>        -0.0598
     15 C13        -1.2189    1.7483    0.0173 C.ar      1 <0>        -0.1119
     16 C14        -0.0126    1.0758    0.0080 C.ar      1 <0>        -0.0626
     17 C15         1.1889    1.7891    0.0003 C.ar      1 <0>        -0.0214
     18 C16         1.1683    3.1826    0.0080 C.ar      1 <0>        -0.0643
     19 C17         2.4384    1.0899   -0.0158 C.1       1 <0>         0.2482
     20 N2          3.4297    0.5352   -0.0287 N.1       1 <0>        -0.4061
     21 C18        -1.9016    5.6742   -1.7419 C.ar      1 <0>         0.0382
     22 C19        -1.5597    4.7395   -2.7253 C.ar      1 <0>        -0.1615
     23 C20        -2.5218    4.3347   -3.6264 C.ar      1 <0>         0.1015
     24 N3         -3.7464    4.8240   -3.5755 N.ar      1 <0>        -0.4892
     25 C21        -4.1088    5.7106   -2.6676 C.ar      1 <0>         0.1008
     26 C22        -3.2113    6.1661   -1.7251 C.ar      1 <0>        -0.1644
     27 H2          2.5647   11.7412    2.8092 H         1 <0>         0.1251
     28 H3          0.8177   12.0219    1.1002 H         1 <0>         0.1283
     29 H4         -0.2030   10.0499    0.0426 H         1 <0>         0.1293
     30 H5          2.2873    7.5037    2.4324 H         1 <0>         0.1149
     31 H6          3.3020    9.4893    3.4704 H         1 <0>         0.1254
     32 H7         -1.0633    8.3532   -0.8467 H         1 <0>         0.1466
     33 H8         -2.1941    3.6475    0.0426 H         1 <0>         0.1333
     34 H9         -2.1444    1.1917    0.0187 H         1 <0>         0.1405
     35 H10         0.0021   -0.0041    0.0020 H         1 <0>         0.1374
     36 H11         2.0940    3.7389    0.0018 H         1 <0>         0.1317
     37 H12        -0.5583    4.3382   -2.7755 H         1 <0>         0.1317
     38 H13        -2.2685    3.6109   -4.3869 H         1 <0>         0.1545
     39 H14        -5.1219    6.0847   -2.6630 H         1 <0>         0.1555
     40 H15        -3.5148    6.8915   -0.9848 H         1 <0>         0.1354
@<TRIPOS>BOND
     1    1    6 ar
     2    1    2 ar
     3    1   27 1
     4    2    3 ar
     5    2   28 1
     6    3    4 ar
     7    3   29 1
     8    4    5 ar
     9    4    7 1
    10    5    6 ar
    11    5   30 1
    12    6   31 1
    13    7   11 1
    14    7    8 2
    15    8    9 1
    16    8   32 1
    17    9   10 2
    18    9   21 1
    19   10   11 1
    20   10   13 1
    21   11   12 1
    22   13   18 ar
    23   13   14 ar
    24   14   15 ar
    25   14   33 1
    26   15   16 ar
    27   15   34 1
    28   16   17 ar
    29   16   35 1
    30   17   18 ar
    31   17   19 1
    32   18   36 1
    33   19   20 3
    34   21   26 ar
    35   21   22 ar
    36   22   23 ar
    37   22   37 1
    38   23   24 ar
    39   23   38 1
    40   24   25 ar
    41   25   26 ar
    42   25   39 1
    43   26   40 1
@<TRIPOS>MOLECULE
ZINC03832079
   41    44     0     0     0
SMALL
USER_CHARGES

@<TRIPOS>ATOM
      1 C1         -3.3964   10.6455    0.0885 C.ar      1 <0>        -0.1051
      2 C2         -3.6556    9.5822   -0.7663 C.ar      1 <0>        -0.1171
      3 C3         -2.8249    8.4995   -0.7895 C.ar      1 <0>        -0.1070
      4 C4         -1.6982    8.4635    0.0611 C.ar      1 <0>        -0.0434
      5 C5         -1.4491    9.5487    0.9299 C.ar      1 <0>        -0.0798
      6 C6         -2.2919   10.6223    0.9299 C.ar      1 <0>        -0.1160
      7 C7         -0.8322    7.3505    0.0473 C.2       1 <0>         0.0905
      8 C8          0.6522    7.3879    0.0321 C.2       1 <0>        -0.1082
      9 C9          1.0758    6.0899    0.0216 C.2       1 <0>        -0.1058
     10 C10        -0.0693    5.2558    0.0296 C.2       1 <0>         0.0004
     11 N1         -1.2014    6.0343    0.0390 N.pl3     1 <0>        -0.4960
     12 H1         -2.1134    5.7039    0.0420 H         1 <0>         0.4226
     13 C11        -0.0501    3.8397    0.0227 C.ar      1 <0>         0.0090
     14 C12        -1.2580    3.1130    0.0308 C.ar      1 <0>        -0.0875
     15 C13        -1.2272    1.7480    0.0174 C.ar      1 <0>        -0.0963
     16 C14        -0.0126    1.0758    0.0080 C.ar      1 <0>        -0.0682
     17 C15         1.1829    1.7806    0.0003 C.ar      1 <0>         0.0169
     18 C16         1.1768    3.1463    0.0073 C.ar      1 <0>        -0.0551
     19 N2          2.4697    1.0493   -0.0159 N.pl3     1 <0>        -0.0249
     20 O1          2.4786   -0.2677   -0.0230 O.2       1 <0>        -0.1607
     21 O2          3.6057    1.7155   -0.0232 O.3       1 <0>        -0.1601
     22 C17         1.5038    8.5933    0.0294 C.ar      1 <0>         0.0337
     23 C18         1.2829    9.6312   -0.8885 C.ar      1 <0>        -0.1574
     24 C19         2.1010   10.7415   -0.8506 C.ar      1 <0>         0.1017
     25 N3          3.0842   10.8299    0.0241 N.ar      1 <0>        -0.4878
     26 C20         3.3311    9.8764    0.9014 C.ar      1 <0>         0.1021
     27 C21         2.5615    8.7320    0.9408 C.ar      1 <0>        -0.1638
     28 H2         -4.0594   11.4980    0.0989 H         1 <0>         0.1263
     29 H3         -4.5179    9.6123   -1.4158 H         1 <0>         0.1269
     30 H4         -3.0282    7.6741   -1.4557 H         1 <0>         0.1204
     31 H5         -0.5931    9.5311    1.5881 H         1 <0>         0.1253
     32 H6         -2.1014   11.4553    1.5903 H         1 <0>         0.1279
     33 H7          2.1033    5.7576    0.0097 H         1 <0>         0.1523
     34 H8         -2.2040    3.6339    0.0423 H         1 <0>         0.1345
     35 H9         -2.1513    1.1891    0.0184 H         1 <0>         0.1520
     36 H10         0.0021   -0.0041    0.0020 H         1 <0>         0.1573
     37 H11         2.1084    3.6927    0.0013 H         1 <0>         0.1605
     38 H12         0.4828    9.5637   -1.6108 H         1 <0>         0.1317
     39 H13         1.9370   11.5477   -1.5503 H         1 <0>         0.1550
     40 H14         4.1476    9.9930    1.5987 H         1 <0>         0.1569
     41 H15         2.7696    7.9555    1.6620 H         1 <0>         0.1363
@<TRIPOS>BOND
     1    1    6 ar
     2    1    2 ar
     3    1   28 1
     4    2    3 ar
     5    2   29 1
     6    3    4 ar
     7    3   30 1
     8    4    5 ar
     9    4    7 1
    10    5    6 ar
    11    5   31 1
    12    6   32 1
    13    7   11 1
    14    7    8 2
    15    8    9 1
    16    8   22 1
    17    9   10 2
    18    9   33 1
    19   10   11 1
    20   10   13 1
    21   11   12 1
    22   13   18 ar
    23   13   14 ar
    24   14   15 ar
    25   14   34 1
    26   15   16 ar
    27   15   35 1
    28   16   17 ar
    29   16   36 1
    30   17   18 ar
    31   17   19 1
    32   18   37 1
    33   19   20 2
    34   19   21 1
    35   22   27 ar
    36   22   23 ar
    37   23   24 ar
    38   23   38 1
    39   24   25 ar
    40   24   39 1
    41   25   26 ar
    42   26   27 ar
    43   26   40 1
    44   27   41 1
@<TRIPOS>MOLECULE
ZINC03832083
   43    46     0     0     0
SMALL
USER_CHARGES

@<TRIPOS>ATOM
      1 C1          7.3480    1.0547    0.8771 C.3       1 <0>         0.0255
      2 O1          6.3134    0.0698    0.9187 O.3       1 <0>        -0.3151
      3 C2          5.0390    0.5057    0.7384 C.ar      1 <0>         0.1301
      4 C3          3.9869   -0.4000    0.7672 C.ar      1 <0>        -0.1427
      5 C4          2.6926    0.0381    0.5843 C.ar      1 <0>        -0.0593
      6 C5          2.4405    1.3945    0.3702 C.ar      1 <0>        -0.0578
      7 C6          3.5017    2.3012    0.3371 C.ar      1 <0>        -0.0796
      8 C7          4.7926    1.8555    0.5253 C.ar      1 <0>        -0.2006
      9 C8          1.0545    1.8685    0.1731 C.2       1 <0>         0.0759
     10 C9         -0.0594    1.0866    0.1773 C.2       1 <0>        -0.1534
     11 C10        -1.1706    1.9261   -0.0512 C.2       1 <0>        -0.1141
     12 C11        -0.6845    3.2192   -0.1799 C.2       1 <0>         0.0833
     13 N1          0.6775    3.1700   -0.0445 N.pl3     1 <0>        -0.5399
     14 H1          1.2775    3.9306   -0.0940 H         1 <0>         0.4171
     15 C12        -1.4905    4.4304   -0.4259 C.ar      1 <0>        -0.0374
     16 C13        -2.4744    4.4287   -1.4179 C.ar      1 <0>        -0.0598
     17 C14        -3.2280    5.5619   -1.6394 C.ar      1 <0>        -0.1482
     18 C15        -3.0035    6.7047   -0.8879 C.ar      1 <0>         0.1070
     19 C16        -2.0253    6.7142    0.0940 C.ar      1 <0>        -0.1499
     20 C17        -1.2689    5.5855    0.3284 C.ar      1 <0>        -0.0810
     21 F1         -3.7415    7.8137   -1.1130 F         1 <0>        -0.1358
     22 C18        -2.5883    1.5064   -0.1349 C.ar      1 <0>         0.0393
     23 C19        -3.5575    2.0780    0.6967 C.ar      1 <0>        -0.1601
     24 C20        -4.8668    1.6608    0.5825 C.ar      1 <0>         0.1008
     25 N2         -5.2077    0.7298   -0.2886 N.ar      1 <0>        -0.4892
     26 C21        -4.3244    0.1619   -1.0880 C.ar      1 <0>         0.1000
     27 C22        -2.9944    0.5230   -1.0437 C.ar      1 <0>        -0.1646
     28 H2          7.3418    1.5473   -0.0952 H         1 <0>         0.0567
     29 H3          7.1777    1.7938    1.6599 H         1 <0>         0.0567
     30 H4          8.3136    0.5742    1.0348 H         1 <0>         0.1028
     31 H5          4.1828   -1.4491    0.9328 H         1 <0>         0.1374
     32 H6          1.8749   -0.6671    0.6061 H         1 <0>         0.1372
     33 H7          3.3112    3.3507    0.1678 H         1 <0>         0.1182
     34 H8          5.6138    2.5567    0.5033 H         1 <0>         0.1315
     35 H9         -0.0875    0.0170    0.3243 H         1 <0>         0.1457
     36 H10        -2.6471    3.5402   -2.0071 H         1 <0>         0.1347
     37 H11        -3.9916    5.5605   -2.4031 H         1 <0>         0.1406
     38 H12        -1.8549    7.6076    0.6764 H         1 <0>         0.1399
     39 H13        -0.5064    5.5942    1.0933 H         1 <0>         0.1319
     40 H14        -3.2848    2.8371    1.4149 H         1 <0>         0.1309
     41 H15        -5.6227    2.0985    1.2177 H         1 <0>         0.1542
     42 H16        -4.6476   -0.5961   -1.7861 H         1 <0>         0.1555
     43 H17        -2.2770    0.0541   -1.7008 H         1 <0>         0.1354
@<TRIPOS>BOND
     1    1    2 1
     2    1   28 1
     3    1   29 1
     4    1   30 1
     5    2    3 1
     6    3    8 ar
     7    3    4 ar
     8    4    5 ar
     9    4   31 1
    10    5    6 ar
    11    5   32 1
    12    6    7 ar
    13    6    9 1
    14    7    8 ar
    15    7   33 1
    16    8   34 1
    17    9   13 1
    18    9   10 2
    19   10   11 1
    20   10   35 1
    21   11   12 2
    22   11   22 1
    23   12   13 1
    24   12   15 1
    25   13   14 1
    26   15   20 ar
    27   15   16 ar
    28   16   17 ar
    29   16   36 1
    30   17   18 ar
    31   17   37 1
    32   18   19 ar
    33   18   21 1
    34   19   20 ar
    35   19   38 1
    36   20   39 1
    37   22   27 ar
    38   22   23 ar
    39   23   24 ar
    40   23   40 1
    41   24   25 ar
    42   24   41 1
    43   25   26 ar
    44   26   27 ar
    45   26   42 1
    46   27   43 1
@<TRIPOS>MOLECULE
ZINC03832090
   44    47     0     0     0
SMALL
USER_CHARGES

@<TRIPOS>ATOM
      1 C1         -1.1628    6.3026    1.1675 C.3       1 <0>        -0.1936
      2 C2          0.1265    5.5231    1.1352 C.2       1 <0>         0.3956
      3 O1          1.1835    6.0915    1.3118 O.2       1 <0>        -0.4572
      4 C3          0.1033    4.0757    0.8900 C.ar      1 <0>        -0.1938
      5 C4          1.3005    3.3491    0.8596 C.ar      1 <0>        -0.0260
      6 C5          1.2742    2.0028    0.6307 C.ar      1 <0>        -0.1717
      7 C6          0.0597    1.3525    0.4278 C.ar      1 <0>         0.1962
      8 C7         -1.1325    2.0718    0.4515 C.ar      1 <0>        -0.1546
      9 C8         -1.1160    3.4174    0.6854 C.ar      1 <0>        -0.0338
     10 N1          0.0377   -0.0195    0.1950 N.am      1 <0>        -0.3473
     11 C9         -1.0673   -0.7624   -0.0151 C.2       1 <0>         0.5470
     12 O2         -2.2162   -0.3600   -0.0352 O.2       1 <0>        -0.5001
     13 C10        -0.6256   -2.1462   -0.2143 C.2       1 <0>        -0.2409
     14 C11         0.7547   -2.1429   -0.1077 C.2       1 <0>         0.2433
     15 N2          1.1588   -0.8531    0.1345 N.pl3     1 <0>        -0.4878
     16 H1          2.0782   -0.5656    0.2486 H         1 <0>         0.4469
     17 C12         1.6380   -3.3191   -0.2380 C.ar      1 <0>        -0.0085
     18 C13         1.3460   -4.5162    0.4278 C.ar      1 <0>        -0.1264
     19 C14         2.1973   -5.5916    0.2741 C.ar      1 <0>         0.1092
     20 N3          3.2764   -5.4994   -0.4784 N.ar      1 <0>        -0.4696
     21 C15         3.5914   -4.3903   -1.1190 C.ar      1 <0>         0.1070
     22 C16         2.7947   -3.2673   -1.0262 C.ar      1 <0>        -0.1509
     23 C17        -1.4884   -3.3198   -0.4788 C.ar      1 <0>        -0.0073
     24 C18        -1.4200   -3.9761   -1.7081 C.ar      1 <0>        -0.0730
     25 C19        -2.2224   -5.0724   -1.9475 C.ar      1 <0>        -0.1513
     26 C20        -3.1031   -5.5152   -0.9738 C.ar      1 <0>         0.1022
     27 C21        -3.1787   -4.8637    0.2468 C.ar      1 <0>        -0.1507
     28 C22        -2.3769   -3.7697    0.4982 C.ar      1 <0>        -0.0691
     29 F1         -3.8905   -6.5862   -1.2151 F         1 <0>        -0.1384
     30 H2         -1.7509    5.9441    1.8925 H         1 <0>         0.0854
     31 H3         -0.9473    7.3535    1.3607 H         1 <0>         0.0869
     32 H4         -1.6698    6.2063    0.2074 H         1 <0>         0.0956
     33 H5          2.2429    3.8528    1.0165 H         1 <0>         0.1429
     34 H6          2.1968    1.4419    0.6067 H         1 <0>         0.1273
     35 H7         -2.0718    1.5641    0.2893 H         1 <0>         0.1665
     36 H8         -2.0415    3.9737    0.7084 H         1 <0>         0.1451
     37 H9          0.4663   -4.5977    1.0491 H         1 <0>         0.1455
     38 H10         1.9789   -6.5203    0.7803 H         1 <0>         0.1662
     39 H11         4.4854   -4.3605   -1.7242 H         1 <0>         0.1647
     40 H12         3.0588   -2.3625   -1.5535 H         1 <0>         0.1402
     41 H13        -0.7371   -3.6290   -2.4693 H         1 <0>         0.1296
     42 H14        -2.1672   -5.5837   -2.8972 H         1 <0>         0.1372
     43 H15        -3.8669   -5.2128    1.0025 H         1 <0>         0.1385
     44 H16        -2.4371   -3.2622    1.4496 H         1 <0>         0.1329
@<TRIPOS>BOND
     1    1    2 1
     2    1   30 1
     3    1   31 1
     4    1   32 1
     5    2    3 2
     6    2    4 1
     7    4    9 ar
     8    4    5 ar
     9    5    6 ar
    10    5   33 1
    11    6    7 ar
    12    6   34 1
    13    7    8 ar
    14    7   10 1
    15    8    9 ar
    16    8   35 1
    17    9   36 1
    18   10   15 1
    19   10   11 am
    20   11   12 2
    21   11   13 1
    22   13   14 2
    23   13   23 1
    24   14   15 1
    25   14   17 1
    26   15   16 1
    27   17   22 ar
    28   17   18 ar
    29   18   19 ar
    30   18   37 1
    31   19   20 ar
    32   19   38 1
    33   20   21 ar
    34   21   22 ar
    35   21   39 1
    36   22   40 1
    37   23   28 ar
    38   23   24 ar
    39   24   25 ar
    40   24   41 1
    41   25   26 ar
    42   25   42 1
    43   26   27 ar
    44   26   29 1
    45   27   28 ar
    46   27   43 1
    47   28   44 1
@<TRIPOS>MOLECULE
ZINC03832102
   42    45     0     0     0
SMALL
USER_CHARGES

@<TRIPOS>ATOM
      1 C1         -7.2456    8.7571    3.7598 C.3       1 <0>        -0.1732
      2 C2         -6.4649    7.7494    2.9560 C.2       1 <0>         0.4994
      3 O1         -6.8703    7.3953    1.8693 O.2       1 <0>        -0.4775
      4 N1         -5.3160    7.2418    3.4448 N.am      1 <0>        -0.6616
      5 C3         -4.5396    6.3919    2.6590 C.ar      1 <0>         0.3977
      6 C4         -3.3033    5.9606    3.1371 C.ar      1 <0>        -0.2223
      7 C5         -2.5377    5.1252    2.3672 C.ar      1 <0>         0.0026
      8 C6         -3.0358    4.7299    1.1223 C.ar      1 <0>        -0.1623
      9 C7         -2.5195    3.8761    0.0438 C.2       1 <0>        -0.0968
     10 C8         -3.4782    3.8800   -0.9474 C.2       1 <0>         0.1340
     11 N2         -4.5301    4.6741   -0.5541 N.pl3     1 <0>        -0.5660
     12 H1         -5.3284    4.8375   -1.0803 H         1 <0>         0.4224
     13 C9         -4.2877    5.2039    0.6918 C.ar      1 <0>         0.3256
     14 N3         -4.9910    6.0127    1.4768 N.ar      1 <0>        -0.4929
     15 C10        -3.3895    3.1490   -2.2266 C.ar      1 <0>        -0.0456
     16 C11        -2.2079    3.1795   -2.9711 C.ar      1 <0>        -0.0537
     17 C12        -2.1289    2.4896   -4.1623 C.ar      1 <0>        -0.1496
     18 C13        -3.2229    1.7770   -4.6275 C.ar      1 <0>         0.1103
     19 C14        -4.3999    1.7478   -3.8960 C.ar      1 <0>        -0.1510
     20 C15        -4.4887    2.4287   -2.7003 C.ar      1 <0>        -0.0753
     21 F1         -3.1417    1.1079   -5.7984 F         1 <0>        -0.1354
     22 C16        -1.2298    3.1508    0.0273 C.ar      1 <0>        -0.0106
     23 C17        -1.2106    1.7555    0.0132 C.ar      1 <0>        -0.1011
     24 C18        -0.0048    1.0853    0.0031 C.ar      1 <0>        -0.1174
     25 C19         1.1837    1.7936   -0.0046 C.ar      1 <0>        -0.1188
     26 C20         1.1715    3.1771    0.0036 C.ar      1 <0>        -0.1184
     27 C21        -0.0275    3.8592    0.0195 C.ar      1 <0>        -0.1075
     28 H2         -6.6260    9.6353    3.9418 H         1 <0>         0.0915
     29 H3         -8.1379    9.0503    3.2067 H         1 <0>         0.0965
     30 H4         -7.5374    8.3146    4.7122 H         1 <0>         0.0911
     31 H5         -5.0296    7.4679    4.3436 H         1 <0>         0.4205
     32 H6         -2.9521    6.2821    4.1065 H         1 <0>         0.1411
     33 H7         -1.5765    4.7769    2.7153 H         1 <0>         0.1403
     34 H8         -1.3563    3.7384   -2.6120 H         1 <0>         0.1386
     35 H9         -1.2142    2.5082   -4.7363 H         1 <0>         0.1418
     36 H10        -5.2491    1.1909   -4.2634 H         1 <0>         0.1410
     37 H11        -5.4064    2.4055   -2.1314 H         1 <0>         0.1340
     38 H12        -2.1377    1.2015    0.0143 H         1 <0>         0.1199
     39 H13         0.0114    0.0054   -0.0034 H         1 <0>         0.1223
     40 H14         2.1250    1.2642   -0.0166 H         1 <0>         0.1212
     41 H15         2.1027    3.7242   -0.0028 H         1 <0>         0.1231
     42 H16        -0.0358    4.9392    0.0255 H         1 <0>         0.1222
@<TRIPOS>BOND
     1    1    2 1
     2    1   28 1
     3    1   29 1
     4    1   30 1
     5    2    3 2
     6    2    4 am
     7    4    5 1
     8    4   31 1
     9    5   14 ar
    10    5    6 ar
    11    6    7 ar
    12    6   32 1
    13    7    8 ar
    14    7   33 1
    15    8   13 ar
    16    8    9 1
    17    9   10 2
    18    9   22 1
    19   10   11 1
    20   10   15 1
    21   11   12 1
    22   11   13 1
    23   13   14 ar
    24   15   20 ar
    25   15   16 ar
    26   16   17 ar
    27   16   34 1
    28   17   18 ar
    29   17   35 1
    30   18   19 ar
    31   18   21 1
    32   19   20 ar
    33   19   36 1
    34   20   37 1
    35   22   27 ar
    36   22   23 ar
    37   23   24 ar
    38   23   38 1
    39   24   25 ar
    40   24   39 1
    41   25   26 ar
    42   25   40 1
    43   26   27 ar
    44   26   41 1
    45   27   42 1
@<TRIPOS>MOLECULE
ZINC03832103
   39    42     0     0     0
SMALL
USER_CHARGES

@<TRIPOS>ATOM
      1 C1         -2.4740    4.4293   -1.4174 C.ar      1 <0>        -0.0582
      2 C2         -3.2283    5.5623   -1.6379 C.ar      1 <0>        -0.1484
      3 C3         -3.0035    6.7050   -0.8862 C.ar      1 <0>         0.1091
      4 C4         -2.0249    6.7142    0.0954 C.ar      1 <0>        -0.1499
      5 C5         -1.2685    5.5854    0.3293 C.ar      1 <0>        -0.0794
      6 C6         -1.4901    4.4307   -0.4254 C.ar      1 <0>        -0.0415
      7 C7         -0.6841    3.2193   -0.1800 C.2       1 <0>         0.0940
      8 C8         -1.1703    1.9260   -0.0513 C.2       1 <0>        -0.1167
      9 C9         -0.0595    1.0866    0.1772 C.2       1 <0>        -0.1400
     10 C10         1.0544    1.8685    0.1730 C.2       1 <0>         0.0579
     11 N1          0.6773    3.1701   -0.0446 N.pl3     1 <0>        -0.5371
     12 H1          1.2772    3.9307   -0.0941 H         1 <0>         0.4187
     13 C11         2.4405    1.3945    0.3697 C.ar      1 <0>         0.0012
     14 C12         3.5023    2.3003    0.3368 C.ar      1 <0>        -0.1185
     15 C13         4.7931    1.8525    0.5258 C.ar      1 <0>        -0.0803
     16 C14         5.0379    0.5062    0.7373 C.ar      1 <0>        -0.0941
     17 C15         3.9896   -0.3978    0.7657 C.ar      1 <0>        -0.0800
     18 C16         2.6938    0.0384    0.5833 C.ar      1 <0>        -0.0973
     19 Br1         6.8112   -0.1002    0.9889 Br        1 <0>        -0.0452
     20 C17        -2.5881    1.5064   -0.1349 C.ar      1 <0>         0.0377
     21 C18        -3.5573    2.0782    0.6966 C.ar      1 <0>        -0.1596
     22 C19        -4.8668    1.6621    0.5815 C.ar      1 <0>         0.1012
     23 N2         -5.2079    0.7311   -0.2896 N.ar      1 <0>        -0.4883
     24 C20        -4.3244    0.1625   -1.0884 C.ar      1 <0>         0.1004
     25 C21        -2.9943    0.5231   -1.0437 C.ar      1 <0>        -0.1642
     26 F1         -3.7415    7.8141   -1.1109 F         1 <0>        -0.1350
     27 H2         -2.6465    3.5412   -2.0072 H         1 <0>         0.1351
     28 H3         -3.9924    5.5610   -2.4011 H         1 <0>         0.1412
     29 H4         -1.8543    7.6075    0.6779 H         1 <0>         0.1407
     30 H5         -0.5061    5.5938    1.0942 H         1 <0>         0.1324
     31 H6         -0.0876    0.0170    0.3242 H         1 <0>         0.1476
     32 H7          3.3130    3.3501    0.1678 H         1 <0>         0.1248
     33 H8          5.6150    2.5528    0.5047 H         1 <0>         0.1362
     34 H9          4.1869   -1.4467    0.9307 H         1 <0>         0.1390
     35 H10         1.8770   -0.6678    0.6054 H         1 <0>         0.1391
     36 H11        -3.2845    2.8370    1.4151 H         1 <0>         0.1313
     37 H12        -5.6229    2.1006    1.2158 H         1 <0>         0.1546
     38 H13        -4.6476   -0.5958   -1.7863 H         1 <0>         0.1559
     39 H14        -2.2769    0.0538   -1.7006 H         1 <0>         0.1355
@<TRIPOS>BOND
     1    1    6 ar
     2    1    2 ar
     3    1   27 1
     4    2    3 ar
     5    2   28 1
     6    3    4 ar
     7    3   26 1
     8    4    5 ar
     9    4   29 1
    10    5    6 ar
    11    5   30 1
    12    6    7 1
    13    7   11 1
    14    7    8 2
    15    8    9 1
    16    8   20 1
    17    9   10 2
    18    9   31 1
    19   10   11 1
    20   10   13 1
    21   11   12 1
    22   13   18 ar
    23   13   14 ar
    24   14   15 ar
    25   14   32 1
    26   15   16 ar
    27   15   33 1
    28   16   17 ar
    29   16   19 1
    30   17   18 ar
    31   17   34 1
    32   18   35 1
    33   20   25 ar
    34   20   21 ar
    35   21   22 ar
    36   21   36 1
    37   22   23 ar
    38   22   37 1
    39   23   24 ar
    40   24   25 ar
    41   24   38 1
    42   25   39 1
@<TRIPOS>MOLECULE
ZINC03832104
   50    54     0     0     0
SMALL
USER_CHARGES

@<TRIPOS>ATOM
      1 C1          7.6255   -5.2580   -3.2989 C.3       1 <0>        -0.4980
      2 S1          7.8601   -3.5954   -3.9853 S.o       1 <0>         1.3315
      3 O1          9.1637   -3.1300   -3.6641 O.2       1 <0>        -0.8539
      4 C2          6.7944   -2.5801   -3.0168 C.ar      1 <0>        -0.4652
      5 C3          7.2706   -1.9881   -1.8604 C.ar      1 <0>        -0.0446
      6 C4          6.4418   -1.1914   -1.0979 C.ar      1 <0>        -0.1391
      7 C5          5.1198   -0.9833   -1.4952 C.ar      1 <0>         0.0216
      8 C6          4.6440   -1.5886   -2.6597 C.ar      1 <0>        -0.1206
      9 C7          5.4852   -2.3780   -3.4162 C.ar      1 <0>        -0.0324
     10 C8          4.2261   -0.1308   -0.6833 C.2       1 <0>         0.0540
     11 C9          2.9245    0.1464   -0.9646 C.2       1 <0>        -0.1348
     12 C10         2.4381    0.9914    0.0572 C.2       1 <0>        -0.1186
     13 C11         3.4887    1.2066    0.9416 C.2       1 <0>         0.0960
     14 N1          4.5726    0.5113    0.4798 N.pl3     1 <0>        -0.5365
     15 H1          5.4448    0.4800    0.9030 H         1 <0>         0.4190
     16 C12         3.4423    2.0345    2.1616 C.ar      1 <0>        -0.0410
     17 C13         2.8877    3.3164    2.1188 C.ar      1 <0>        -0.0585
     18 C14         2.8425    4.0834    3.2636 C.ar      1 <0>        -0.1478
     19 C15         3.3561    3.5897    4.4527 C.ar      1 <0>         0.1100
     20 C16         3.9123    2.3209    4.5003 C.ar      1 <0>        -0.1491
     21 C17         3.9581    1.5422    3.3634 C.ar      1 <0>        -0.0794
     22 F1          3.3141    4.3481    5.5700 F         1 <0>        -0.1350
     23 C18         1.0732    1.5466    0.1628 C.ar      1 <0>         0.0565
     24 C19         0.5978    2.4670   -0.7659 C.ar      1 <0>        -0.1713
     25 C20        -0.6880    2.9722   -0.6343 C.ar      1 <0>         0.1335
     26 N2         -1.4835    2.5997    0.3413 N.ar      1 <0>        -0.4779
     27 C21        -1.0952    1.7194    1.2703 C.ar      1 <0>         0.1315
     28 C22         0.2031    1.1584    1.2146 C.ar      1 <0>        -0.0879
     29 C23         0.6046    0.2376    2.1904 C.ar      1 <0>        -0.0855
     30 C24        -0.2598   -0.1100    3.1853 C.ar      1 <0>        -0.1198
     31 C25        -1.5381    0.4395    3.2439 C.ar      1 <0>        -0.0985
     32 C26        -1.9593    1.3375    2.3115 C.ar      1 <0>        -0.0965
     33 H2          6.5795   -5.5481   -3.3987 H         1 <0>         0.1121
     34 H3          8.2522   -5.9665   -3.8406 H         1 <0>         0.1079
     35 H4          7.9038   -5.2586   -2.2451 H         1 <0>         0.0802
     36 H5          8.2936   -2.1499   -1.5541 H         1 <0>         0.1283
     37 H6          6.8149   -0.7293   -0.1959 H         1 <0>         0.1174
     38 H7          3.6209   -1.4355   -2.9700 H         1 <0>         0.1364
     39 H8          5.1198   -2.8427   -4.3201 H         1 <0>         0.1436
     40 H9          2.3648   -0.2137   -1.8152 H         1 <0>         0.1491
     41 H10         2.4913    3.7038    1.1919 H         1 <0>         0.1354
     42 H11         2.4101    5.0726    3.2329 H         1 <0>         0.1411
     43 H12         4.3109    1.9417    5.4296 H         1 <0>         0.1405
     44 H13         4.3920    0.5540    3.4016 H         1 <0>         0.1316
     45 H14         1.2273    2.7899   -1.5820 H         1 <0>         0.1391
     46 H15        -1.0462    3.6894   -1.3580 H         1 <0>         0.1601
     47 H16         1.5937   -0.1946    2.1549 H         1 <0>         0.1255
     48 H17         0.0506   -0.8199    3.9377 H         1 <0>         0.1251
     49 H18        -2.2056    0.1489    4.0417 H         1 <0>         0.1294
     50 H19        -2.9538    1.7545    2.3709 H         1 <0>         0.1354
@<TRIPOS>BOND
     1    1    2 1
     2    1   33 1
     3    1   34 1
     4    1   35 1
     5    2    3 2
     6    2    4 1
     7    4    9 ar
     8    4    5 ar
     9    5    6 ar
    10    5   36 1
    11    6    7 ar
    12    6   37 1
    13    7    8 ar
    14    7   10 1
    15    8    9 ar
    16    8   38 1
    17    9   39 1
    18   10   14 1
    19   10   11 2
    20   11   12 1
    21   11   40 1
    22   12   13 2
    23   12   23 1
    24   13   14 1
    25   13   16 1
    26   14   15 1
    27   16   21 ar
    28   16   17 ar
    29   17   18 ar
    30   17   41 1
    31   18   19 ar
    32   18   42 1
    33   19   20 ar
    34   19   22 1
    35   20   21 ar
    36   20   43 1
    37   21   44 1
    38   23   28 ar
    39   23   24 ar
    40   24   25 ar
    41   24   45 1
    42   25   26 ar
    43   25   46 1
    44   26   27 ar
    45   27   32 ar
    46   27   28 ar
    47   28   29 ar
    48   29   30 ar
    49   29   47 1
    50   30   31 ar
    51   30   48 1
    52   31   32 ar
    53   31   49 1
    54   32   50 1
@<TRIPOS>MOLECULE
ZINC03832109
   46    48     0     0     0
SMALL
USER_CHARGES

@<TRIPOS>ATOM
      1 C1          6.5738    4.6869   -1.9740 C.3       1 <0>        -0.1385
      2 C2          5.7607    4.8889   -0.6938 C.3       1 <0>         0.0122
      3 C3          4.6960    5.9620   -0.9297 C.3       1 <0>        -0.1387
      4 C4          6.6911    5.3334    0.4365 C.3       1 <0>        -0.1389
      5 C5          5.0921    3.5929   -0.3137 C.2       1 <0>         0.1227
      6 C6          5.7243    2.4842    0.2572 C.2       1 <0>        -0.2621
      7 C7          4.7838    1.5196    0.4489 C.2       1 <0>         0.3431
      8 N1          3.5948    2.0158    0.0079 N.pl3     1 <0>        -0.3418
      9 N2          3.8233    3.3133   -0.4682 N.2       1 <0>        -0.2717
     10 C8          2.3673    1.3479    0.0222 C.ar      1 <0>         0.3698
     11 C9          1.1860    2.0793    0.0482 C.ar      1 <0>        -0.1568
     12 C10        -0.0229    1.4054    0.0617 C.ar      1 <0>        -0.0481
     13 C11        -0.0073    0.0175    0.0491 C.ar      1 <0>        -0.1821
     14 C12         1.2045   -0.6446    0.0236 C.ar      1 <0>         0.1330
     15 N3          2.3408    0.0250    0.0109 N.ar      1 <0>        -0.5231
     16 N4          4.9982    0.2554    0.9962 N.am      1 <0>        -0.6457
     17 C13         6.2343   -0.1063    1.3933 C.2       1 <0>         0.7180
     18 O1          7.1626    0.6700    1.2741 O.2       1 <0>        -0.5389
     19 N5          6.4415   -1.3284    1.9224 N.am      1 <0>        -0.6736
     20 C14         7.7396   -1.7393    2.2478 C.ar      1 <0>         0.1857
     21 C15         8.6627   -0.8172    2.7228 C.ar      1 <0>        -0.1042
     22 C16         9.9428   -1.2250    3.0437 C.ar      1 <0>        -0.0803
     23 C17        10.3067   -2.5504    2.8927 C.ar      1 <0>        -0.1121
     24 C18         9.3902   -3.4729    2.4198 C.ar      1 <0>        -0.0128
     25 C19         8.1051   -3.0716    2.1016 C.ar      1 <0>        -0.0629
     26 Cl1         6.9527   -4.2299    1.5150 Cl        1 <0>        -0.0426
     27 Cl2         9.8512   -5.1361    2.2323 Cl        1 <0>        -0.0413
     28 H1          5.9109    4.3703   -2.7793 H         1 <0>         0.0567
     29 H2          7.0574    5.6243   -2.2489 H         1 <0>         0.0669
     30 H3          7.3323    3.9224   -1.8059 H         1 <0>         0.0624
     31 H4          4.1167    6.1059   -0.0177 H         1 <0>         0.0575
     32 H5          5.1796    6.8994   -1.2046 H         1 <0>         0.0616
     33 H6          4.0331    5.6453   -1.7350 H         1 <0>         0.0614
     34 H7          7.4496    4.5688    0.6046 H         1 <0>         0.0644
     35 H8          7.1747    6.2707    0.1616 H         1 <0>         0.0658
     36 H9          6.1119    5.4772    1.3486 H         1 <0>         0.0576
     37 H10         6.7732    2.4072    0.5029 H         1 <0>         0.1831
     38 H11         1.2108    3.1590    0.0571 H         1 <0>         0.1487
     39 H12        -0.9570    1.9472    0.0771 H         1 <0>         0.1469
     40 H13        -0.9330   -0.5387    0.0594 H         1 <0>         0.1452
     41 H14         1.2219   -1.7244    0.0138 H         1 <0>         0.1689
     42 H15         4.2576   -0.3639    1.0913 H         1 <0>         0.4202
     43 H16         5.6912   -1.9233    2.0777 H         1 <0>         0.4135
     44 H17         8.3801    0.2185    2.8409 H         1 <0>         0.1589
     45 H18        10.6606   -0.5074    3.4127 H         1 <0>         0.1460
     46 H19        11.3085   -2.8662    3.1441 H         1 <0>         0.1460
@<TRIPOS>BOND
     1    1    2 1
     2    1   28 1
     3    1   29 1
     4    1   30 1
     5    2    3 1
     6    2    4 1
     7    2    5 1
     8    3   31 1
     9    3   32 1
    10    3   33 1
    11    4   34 1
    12    4   35 1
    13    4   36 1
    14    5    9 2
    15    5    6 1
    16    6    7 2
    17    6   37 1
    18    7    8 1
    19    7   16 1
    20    8    9 1
    21    8   10 1
    22   10   15 ar
    23   10   11 ar
    24   11   12 ar
    25   11   38 1
    26   12   13 ar
    27   12   39 1
    28   13   14 ar
    29   13   40 1
    30   14   15 ar
    31   14   41 1
    32   16   17 am
    33   16   42 1
    34   17   18 2
    35   17   19 am
    36   19   20 1
    37   19   43 1
    38   20   25 ar
    39   20   21 ar
    40   21   22 ar
    41   21   44 1
    42   22   23 ar
    43   22   45 1
    44   23   24 ar
    45   23   46 1
    46   24   25 ar
    47   24   27 1
    48   25   26 1
@<TRIPOS>MOLECULE
ZINC03832111
   39    42     0     0     0
SMALL
USER_CHARGES

@<TRIPOS>ATOM
      1 C1         -6.5104   -1.7931    3.7405 C.ar      1 <0>        -0.1384
      2 C2         -6.9861   -1.5744    2.4597 C.ar      1 <0>        -0.1108
      3 C3         -6.1758   -0.9866    1.5106 C.ar      1 <0>        -0.1135
      4 C4         -4.8730   -0.6123    1.8448 C.ar      1 <0>         0.0121
      5 C5         -4.3975   -0.8408    3.1374 C.ar      1 <0>        -0.1328
      6 C6         -5.2204   -1.4241    4.0785 C.ar      1 <0>        -0.1106
      7 C7         -3.9990    0.0173    0.8330 C.2       1 <0>         0.0178
      8 C8         -4.3437    0.2867   -0.4555 C.2       1 <0>        -0.1391
      9 C9         -3.2307    0.8917   -1.0772 C.2       1 <0>        -0.1203
     10 C10        -2.2212    0.9625   -0.1265 C.2       1 <0>         0.1722
     11 N1         -2.7046    0.4282    1.0376 N.pl3     1 <0>        -0.5422
     12 H1         -2.2134    0.3528    1.8707 H         1 <0>         0.4092
     13 C11        -0.8718    1.5195   -0.3322 C.ar      1 <0>        -0.0990
     14 C12        -0.4878    2.6909    0.3241 C.ar      1 <0>        -0.0831
     15 C13         0.7778    3.2040    0.1316 C.ar      1 <0>        -0.1897
     16 C14         1.6699    2.5661   -0.7144 C.ar      1 <0>        -0.0922
     17 C15         1.3024    1.4098   -1.3749 C.ar      1 <0>        -0.1567
     18 C16         0.0330    0.8787   -1.1934 C.ar      1 <0>         0.1610
     19 C17        -3.1529    1.3597   -2.4797 C.ar      1 <0>         0.0826
     20 C18        -2.7999    2.6805   -2.7784 C.ar      1 <0>        -0.1668
     21 C19        -2.7350    3.0729   -4.0986 C.ar      1 <0>         0.0877
     22 N2         -3.0100    2.2249   -5.0719 N.ar      1 <0>        -0.5017
     23 C20        -3.3518    0.9725   -4.8336 C.ar      1 <0>         0.0878
     24 C21        -3.4360    0.4950   -3.5430 C.ar      1 <0>        -0.1305
     25 H2         -7.1490   -2.2536    4.4798 H         1 <0>         0.1181
     26 H3         -7.9943   -1.8641    2.2026 H         1 <0>         0.1219
     27 H4         -6.5485   -0.8161    0.5114 H         1 <0>         0.1266
     28 H5         -3.3892   -0.5576    3.4011 H         1 <0>         0.1136
     29 H6         -4.8552   -1.5977    5.0799 H         1 <0>         0.1194
     30 H7         -5.2979    0.0798   -0.9172 H         1 <0>         0.1337
     31 H8         -1.1795    3.1919    0.9851 H         1 <0>         0.1047
     32 H9          1.0748    4.1075    0.6433 H         1 <0>         0.1069
     33 H10         2.6588    2.9755   -0.8589 H         1 <0>         0.1062
     34 H11         2.0035    0.9187   -2.0334 H         1 <0>         0.1127
     35 H12        -2.5780    3.3809   -1.9869 H         1 <0>         0.1223
     36 H13        -2.4595    4.0890   -4.3393 H         1 <0>         0.1435
     37 H14        -3.5688    0.3130   -5.6609 H         1 <0>         0.1442
     38 H15        -3.7160   -0.5311   -3.3555 H         1 <0>         0.1256
     39 S1         -0.4383   -0.5961   -2.0346 S.3       1 <0>        -0.9027
@<TRIPOS>BOND
     1    1    6 ar
     2    1    2 ar
     3    1   25 1
     4    2    3 ar
     5    2   26 1
     6    3    4 ar
     7    3   27 1
     8    4    5 ar
     9    4    7 1
    10    5    6 ar
    11    5   28 1
    12    6   29 1
    13    7   11 1
    14    7    8 2
    15    8    9 1
    16    8   30 1
    17    9   10 2
    18    9   19 1
    19   10   11 1
    20   10   13 1
    21   11   12 1
    22   13   18 ar
    23   13   14 ar
    24   14   15 ar
    25   14   31 1
    26   15   16 ar
    27   15   32 1
    28   16   17 ar
    29   16   33 1
    30   17   18 ar
    31   17   34 1
    32   18   39 1
    33   19   24 ar
    34   19   20 ar
    35   20   21 ar
    36   20   35 1
    37   21   22 ar
    38   21   36 1
    39   22   23 ar
    40   23   24 ar
    41   23   37 1
    42   24   38 1
@<TRIPOS>MOLECULE
ZINC03832115
   49    52     0     0     0
SMALL
USER_CHARGES

@<TRIPOS>ATOM
      1 C1          3.4744    2.1416    1.2751 C.3       1 <0>        -0.0420
      2 C2          1.4188    2.0518   -0.0005 C.3       1 <0>         0.0012
      3 C3         -0.0187    1.5270    0.0104 C.3       1 <0>        -0.1292
      4 C4          0.0021   -0.0041    0.0020 C.3       1 <0>         0.2048
      5 C5          0.7943   -0.5026    1.2138 C.3       1 <0>        -0.1733
      6 C6          2.2082    0.0811    1.1680 C.3       1 <0>         0.0026
      7 C7         -1.4094   -0.5273    0.0732 C.2       1 <0>        -0.0260
      8 C8         -2.4420    0.0896    0.6787 C.2       1 <0>        -0.1466
      9 C9         -3.5856   -0.7295    0.5175 C.2       1 <0>        -0.1121
     10 C10        -3.1824   -1.8429   -0.2019 C.2       1 <0>         0.1073
     11 N1         -1.8478   -1.6994   -0.4706 N.pl3     1 <0>        -0.5358
     12 H1         -1.3016   -2.3301   -0.9655 H         1 <0>         0.4167
     13 C11        -4.0381   -2.9747   -0.6103 C.ar      1 <0>        -0.0545
     14 C12        -4.9248   -3.5486    0.3035 C.ar      1 <0>        -0.0558
     15 C13        -5.7256   -4.6017   -0.0853 C.ar      1 <0>        -0.1482
     16 C14        -5.6431   -5.0986   -1.3764 C.ar      1 <0>         0.1176
     17 C15        -4.7613   -4.5366   -2.2860 C.ar      1 <0>        -0.1501
     18 C16        -3.9597   -3.4794   -1.9103 C.ar      1 <0>        -0.0779
     19 F1         -6.4258   -6.1346   -1.7500 F         1 <0>        -0.1306
     20 C17        -4.9497   -0.4499    1.0205 C.ar      1 <0>         0.0292
     21 C18        -6.0603   -0.5379    0.1737 C.ar      1 <0>        -0.1597
     22 C19        -7.3134   -0.2746    0.6851 C.ar      1 <0>         0.1057
     23 N2         -7.4710    0.0667    1.9503 N.ar      1 <0>        -0.4838
     24 C20        -6.4502    0.1666    2.7809 C.ar      1 <0>         0.1030
     25 C21        -5.1633   -0.0848    2.3545 C.ar      1 <0>        -0.1663
     26 O1          0.6242   -0.4666   -1.1984 O.3       1 <0>        -0.5481
     27 H2          4.0732    1.8281    0.4200 H         1 <0>         0.1234
     28 H3          3.3906    3.2284    1.2810 H         1 <0>         0.1235
     29 H4          3.9538    1.8092    2.1958 H         1 <0>         0.1222
     30 H5          1.9231    1.7108   -0.9046 H         1 <0>         0.1386
     31 H6          1.4077    3.1416    0.0199 H         1 <0>         0.1335
     32 H7         -0.5449    1.8886   -0.8730 H         1 <0>         0.1247
     33 H8         -0.5279    1.8791    0.9076 H         1 <0>         0.1074
     34 H9          0.2979   -0.1824    2.1299 H         1 <0>         0.1053
     35 H10         0.8484   -1.5910    1.1905 H         1 <0>         0.1132
     36 H11         2.7705   -0.2605    2.0371 H         1 <0>         0.1317
     37 H12         2.7088   -0.2506    0.2583 H         1 <0>         0.1351
     38 H13        -2.4046    1.0381    1.1939 H         1 <0>         0.1439
     39 H14        -4.9864   -3.1653    1.3113 H         1 <0>         0.1345
     40 H15        -6.4149   -5.0434    0.6192 H         1 <0>         0.1438
     41 H16        -4.7015   -4.9277   -3.2910 H         1 <0>         0.1430
     42 H17        -3.2723   -3.0427   -2.6197 H         1 <0>         0.1312
     43 H18        -5.9383   -0.8122   -0.8637 H         1 <0>         0.1316
     44 H19        -8.1772   -0.3442    0.0406 H         1 <0>         0.1572
     45 H20        -6.6252    0.4494    3.8084 H         1 <0>         0.1572
     46 H21        -4.3328   -0.0015    3.0397 H         1 <0>         0.1327
     47 H22         0.6718   -1.4297   -1.2709 H         1 <0>         0.3864
     48 N3          2.1196    1.5565    1.2032 N.4       1 <0>        -0.3962
     49 H23         1.5900    1.8385    2.0365 H         1 <0>         0.4279
@<TRIPOS>BOND
     1    1   27 1
     2    1   28 1
     3    1   29 1
     4    1   48 1
     5    2    3 1
     6    2   30 1
     7    2   31 1
     8    2   48 1
     9    3    4 1
    10    3   32 1
    11    3   33 1
    12    4    5 1
    13    4    7 1
    14    4   26 1
    15    5    6 1
    16    5   34 1
    17    5   35 1
    18    6   36 1
    19    6   37 1
    20    6   48 1
    21    7   11 1
    22    7    8 2
    23    8    9 1
    24    8   38 1
    25    9   10 2
    26    9   20 1
    27   10   11 1
    28   10   13 1
    29   11   12 1
    30   13   18 ar
    31   13   14 ar
    32   14   15 ar
    33   14   39 1
    34   15   16 ar
    35   15   40 1
    36   16   17 ar
    37   16   19 1
    38   17   18 ar
    39   17   41 1
    40   18   42 1
    41   20   25 ar
    42   20   21 ar
    43   21   22 ar
    44   21   43 1
    45   22   23 ar
    46   22   44 1
    47   23   24 ar
    48   24   25 ar
    49   24   45 1
    50   25   46 1
    51   26   47 1
    52   48   49 1
@<TRIPOS>MOLECULE
ZINC03832116
   48    51     0     0     0
SMALL
USER_CHARGES

@<TRIPOS>ATOM
      1 C1          3.5723    2.0749   -0.0209 C.3       1 <0>        -0.1537
      2 C2          2.3717    1.1265   -0.0145 C.3       1 <0>         0.0628
      3 O1          1.1434    1.9006    0.0013 O.3       1 <0>        -0.3550
      4 C3         -0.0144    1.2110    0.0087 C.2       1 <0>         0.5092
      5 O2          0.0021   -0.0041    0.0020 O.2       1 <0>        -0.5044
      6 C4         -1.3010    1.9307    0.0187 C.ar      1 <0>        -0.1335
      7 C5         -1.3201    3.3294    0.0323 C.ar      1 <0>        -0.0485
      8 C6         -2.5118    3.9958    0.0366 C.ar      1 <0>        -0.1395
      9 C7         -3.7134    3.2801    0.0385 C.ar      1 <0>         0.0269
     10 C8         -3.6945    1.8816    0.0303 C.ar      1 <0>        -0.1166
     11 C9         -2.5030    1.2149    0.0205 C.ar      1 <0>        -0.0412
     12 C10        -5.0009    4.0003    0.0485 C.2       1 <0>         0.0462
     13 C11        -6.2351    3.4220    0.0513 C.2       1 <0>        -0.1333
     14 C12        -7.1902    4.4581    0.0614 C.2       1 <0>        -0.1223
     15 C13        -6.4910    5.6580    0.0646 C.2       1 <0>         0.1015
     16 N1         -5.1552    5.3647    0.0626 N.pl3     1 <0>        -0.5353
     17 H1         -4.4347    6.0141    0.0676 H         1 <0>         0.4190
     18 C14        -7.0839    7.0093    0.0747 C.ar      1 <0>        -0.0336
     19 C15        -8.1484    7.3150   -0.7768 C.ar      1 <0>        -0.0859
     20 C16        -8.7008    8.5787   -0.7585 C.ar      1 <0>        -0.1150
     21 C17        -8.1961    9.5457    0.0931 C.ar      1 <0>        -0.1092
     22 C18        -7.1385    9.2515    0.9356 C.ar      1 <0>        -0.1165
     23 C19        -6.5796    7.9906    0.9318 C.ar      1 <0>        -0.1093
     24 C20        -8.6626    4.2977    0.0671 C.ar      1 <0>         0.0397
     25 C21        -9.4561    4.9775    0.9975 C.ar      1 <0>        -0.1590
     26 C22       -10.8235    4.8025    0.9647 C.ar      1 <0>         0.1009
     27 N2        -11.3828    4.0002    0.0786 N.ar      1 <0>        -0.4893
     28 C23       -10.6707    3.3371   -0.8130 C.ar      1 <0>         0.1003
     29 C24        -9.2977    3.4576   -0.8539 C.ar      1 <0>        -0.1652
     30 H2          3.5474    2.6985    0.8727 H         1 <0>         0.0673
     31 H3          4.4944    1.4937   -0.0328 H         1 <0>         0.0822
     32 H4          3.5304    2.7081   -0.9071 H         1 <0>         0.0674
     33 H5          2.4136    0.4933    0.8717 H         1 <0>         0.0721
     34 H6          2.3966    0.5028   -0.9082 H         1 <0>         0.0721
     35 H7         -0.3923    3.8821    0.0350 H         1 <0>         0.1413
     36 H8         -2.5266    5.0757    0.0433 H         1 <0>         0.1246
     37 H9         -4.6225    1.3291    0.0320 H         1 <0>         0.1402
     38 H10        -2.4885    0.1350    0.0139 H         1 <0>         0.1436
     39 H11        -6.4433    2.3623    0.0468 H         1 <0>         0.1486
     40 H12        -8.5406    6.5625   -1.4449 H         1 <0>         0.1241
     41 H13        -9.5264    8.8153   -1.4133 H         1 <0>         0.1274
     42 H14        -8.6301   10.5347    0.1006 H         1 <0>         0.1259
     43 H15        -6.7499   10.0110    1.5979 H         1 <0>         0.1268
     44 H16        -5.7544    7.7622    1.5901 H         1 <0>         0.1208
     45 H17        -9.0047    5.6324    1.7282 H         1 <0>         0.1307
     46 H18       -11.4448    5.3259    1.6764 H         1 <0>         0.1542
     47 H19       -11.1701    2.6911   -1.5199 H         1 <0>         0.1556
     48 H20        -8.7212    2.9120   -1.5863 H         1 <0>         0.1351
@<TRIPOS>BOND
     1    1    2 1
     2    1   30 1
     3    1   31 1
     4    1   32 1
     5    2    3 1
     6    2   33 1
     7    2   34 1
     8    3    4 1
     9    4    5 2
    10    4    6 1
    11    6   11 ar
    12    6    7 ar
    13    7    8 ar
    14    7   35 1
    15    8    9 ar
    16    8   36 1
    17    9   10 ar
    18    9   12 1
    19   10   11 ar
    20   10   37 1
    21   11   38 1
    22   12   16 1
    23   12   13 2
    24   13   14 1
    25   13   39 1
    26   14   15 2
    27   14   24 1
    28   15   16 1
    29   15   18 1
    30   16   17 1
    31   18   23 ar
    32   18   19 ar
    33   19   20 ar
    34   19   40 1
    35   20   21 ar
    36   20   41 1
    37   21   22 ar
    38   21   42 1
    39   22   23 ar
    40   22   43 1
    41   23   44 1
    42   24   29 ar
    43   24   25 ar
    44   25   26 ar
    45   25   45 1
    46   26   27 ar
    47   26   46 1
    48   27   28 ar
    49   28   29 ar
    50   28   47 1
    51   29   48 1
@<TRIPOS>MOLECULE
ZINC03832124
   38    41     0     0     0
SMALL
USER_CHARGES

@<TRIPOS>ATOM
      1 C1          3.9978    4.7790    3.2920 C.ar      1 <0>        -0.1214
      2 C2          4.1876    3.4989    3.7816 C.ar      1 <0>        -0.1192
      3 C3          4.0607    2.4107    2.9432 C.ar      1 <0>        -0.1085
      4 C4          3.7397    2.6031    1.5988 C.ar      1 <0>        -0.0068
      5 C5          3.5547    3.8970    1.1101 C.ar      1 <0>        -0.1031
      6 C6          3.6789    4.9765    1.9602 C.ar      1 <0>        -0.1183
      7 C7          3.6019    1.4403    0.6940 C.2       1 <0>        -0.0987
      8 C8          4.6690    0.5174    0.2786 C.ar      1 <0>        -0.1408
      9 C9          6.0328    0.4325    0.5648 C.ar      1 <0>        -0.0203
     10 C10         6.7849   -0.5613    0.0067 C.ar      1 <0>        -0.2050
     11 C11         6.1991   -1.4935   -0.8488 C.ar      1 <0>         0.2419
     12 C12         4.8485   -1.4247   -1.1437 C.ar      1 <0>        -0.2275
     13 C13         4.0692   -0.4180   -0.5828 C.ar      1 <0>         0.1561
     14 N1          2.7315   -0.1002   -0.6867 N.pl3     1 <0>        -0.5864
     15 H1          2.0849   -0.5869   -1.2214 H         1 <0>         0.4155
     16 C14         2.4474    1.0073    0.0773 C.2       1 <0>         0.1115
     17 C15         1.1187    1.6363    0.2109 C.ar      1 <0>        -0.0398
     18 C16         0.6286    1.9781    1.4735 C.ar      1 <0>        -0.0574
     19 C17        -0.6155    2.5606    1.5925 C.ar      1 <0>        -0.1494
     20 C18        -1.3747    2.8172    0.4616 C.ar      1 <0>         0.1060
     21 C19        -0.8934    2.4806   -0.7939 C.ar      1 <0>        -0.1515
     22 C20         0.3468    1.8924   -0.9249 C.ar      1 <0>        -0.0791
     23 F1         -2.5910    3.3924    0.5839 F         1 <0>        -0.1368
     24 N2          6.9814   -2.5053   -1.4122 N.pl3     1 <0>        -0.8764
     25 H2          4.0986    5.6277    3.9523 H         1 <0>         0.1201
     26 H3          4.4360    3.3514    4.8222 H         1 <0>         0.1220
     27 H4          4.2091    1.4120    3.3266 H         1 <0>         0.1220
     28 H5          3.3105    4.0528    0.0697 H         1 <0>         0.1188
     29 H6          3.5319    5.9782    1.5841 H         1 <0>         0.1211
     30 H7          6.4922    1.1514    1.2269 H         1 <0>         0.1235
     31 H8          7.8397   -0.6257    0.2295 H         1 <0>         0.1229
     32 H9          4.4011   -2.1503   -1.8069 H         1 <0>         0.1181
     33 H10         1.2210    1.7825    2.3551 H         1 <0>         0.1373
     34 H11        -0.9976    2.8210    2.5686 H         1 <0>         0.1404
     35 H12        -1.4911    2.6791   -1.6712 H         1 <0>         0.1392
     36 H13         0.7205    1.6299   -1.9036 H         1 <0>         0.1324
     37 H14         6.5775   -3.1559   -2.0075 H         1 <0>         0.3978
     38 H15         7.9282   -2.5569   -1.2079 H         1 <0>         0.3999
@<TRIPOS>BOND
     1    1    6 ar
     2    1    2 ar
     3    1   25 1
     4    2    3 ar
     5    2   26 1
     6    3    4 ar
     7    3   27 1
     8    4    5 ar
     9    4    7 1
    10    5    6 ar
    11    5   28 1
    12    6   29 1
    13    7   16 2
    14    7    8 1
    15    8   13 ar
    16    8    9 ar
    17    9   10 ar
    18    9   30 1
    19   10   11 ar
    20   10   31 1
    21   11   12 ar
    22   11   24 1
    23   12   13 ar
    24   12   32 1
    25   13   14 1
    26   14   15 1
    27   14   16 1
    28   16   17 1
    29   17   22 ar
    30   17   18 ar
    31   18   19 ar
    32   18   33 1
    33   19   20 ar
    34   19   34 1
    35   20   21 ar
    36   20   23 1
    37   21   22 ar
    38   21   35 1
    39   22   36 1
    40   24   37 1
    41   24   38 1
@<TRIPOS>MOLECULE
ZINC03832125
   39    42     0     0     0
SMALL
USER_CHARGES

@<TRIPOS>ATOM
      1 C1         -0.1933    3.9391    0.5769 C.3       1 <0>         0.0395
      2 O1          1.1001    3.3500    0.4287 O.3       1 <0>        -0.3037
      3 C2          1.1497    2.0024    0.2793 C.ar      1 <0>         0.3645
      4 C3          2.3861    1.3784    0.1313 C.ar      1 <0>        -0.2046
      5 C4          2.4402    0.0177   -0.0205 C.ar      1 <0>         0.0093
      6 C5          1.2389   -0.6967   -0.0200 C.ar      1 <0>        -0.1685
      7 C6          0.9007   -2.1205   -0.1526 C.2       1 <0>        -0.0908
      8 C7         -0.4733   -2.2025   -0.0715 C.2       1 <0>         0.1293
      9 N1         -0.9909   -0.9396    0.0996 N.pl3     1 <0>        -0.5679
     10 H1         -1.9351   -0.7342    0.1841 H         1 <0>         0.4211
     11 C8          0.0220   -0.0100    0.1344 C.ar      1 <0>         0.3325
     12 N2          0.0252    1.3112    0.2778 N.ar      1 <0>        -0.5589
     13 C9         -1.2628   -3.4469   -0.1547 C.ar      1 <0>        -0.0456
     14 C10        -0.8819   -4.5696    0.5840 C.ar      1 <0>        -0.0536
     15 C11        -1.6263   -5.7276    0.5064 C.ar      1 <0>        -0.1496
     16 C12        -2.7441   -5.7827   -0.3115 C.ar      1 <0>         0.1108
     17 C13        -3.1239   -4.6735   -1.0508 C.ar      1 <0>        -0.1514
     18 C14        -2.3905   -3.5082   -0.9768 C.ar      1 <0>        -0.0753
     19 F1         -3.4664   -6.9218   -0.3879 F         1 <0>        -0.1352
     20 C15         1.8468   -3.2434   -0.3366 C.ar      1 <0>        -0.0127
     21 C16         1.8480   -3.9706   -1.5276 C.ar      1 <0>        -0.1005
     22 C17         2.7359   -5.0132   -1.6948 C.ar      1 <0>        -0.1175
     23 C18         3.6165   -5.3452   -0.6806 C.ar      1 <0>        -0.1180
     24 C19         3.6167   -4.6315    0.5047 C.ar      1 <0>        -0.1183
     25 C20         2.7375   -3.5833    0.6824 C.ar      1 <0>        -0.1070
     26 H2         -0.0904    5.0186    0.6872 H         1 <0>         0.0979
     27 H3         -0.7957    3.7198   -0.3046 H         1 <0>         0.0587
     28 H4         -0.6804    3.5283    1.4613 H         1 <0>         0.0588
     29 H5          3.2947    1.9623    0.1360 H         1 <0>         0.1474
     30 H6          3.3864   -0.4896   -0.1373 H         1 <0>         0.1441
     31 H7         -0.0086   -4.5293    1.2181 H         1 <0>         0.1386
     32 H8         -1.3356   -6.5948    1.0807 H         1 <0>         0.1420
     33 H9         -3.9957   -4.7222   -1.6864 H         1 <0>         0.1409
     34 H10        -2.6872   -2.6447   -1.5537 H         1 <0>         0.1337
     35 H11         1.1583   -3.7150   -2.3184 H         1 <0>         0.1199
     36 H12         2.7407   -5.5742   -2.6177 H         1 <0>         0.1226
     37 H13         4.3070   -6.1647   -0.8149 H         1 <0>         0.1216
     38 H14         4.3064   -4.8958    1.2927 H         1 <0>         0.1235
     39 H15         2.7389   -3.0267    1.6079 H         1 <0>         0.1225
@<TRIPOS>BOND
     1    1    2 1
     2    1   26 1
     3    1   27 1
     4    1   28 1
     5    2    3 1
     6    3   12 ar
     7    3    4 ar
     8    4    5 ar
     9    4   29 1
    10    5    6 ar
    11    5   30 1
    12    6   11 ar
    13    6    7 1
    14    7    8 2
    15    7   20 1
    16    8    9 1
    17    8   13 1
    18    9   10 1
    19    9   11 1
    20   11   12 ar
    21   13   18 ar
    22   13   14 ar
    23   14   15 ar
    24   14   31 1
    25   15   16 ar
    26   15   32 1
    27   16   17 ar
    28   16   19 1
    29   17   18 ar
    30   17   33 1
    31   18   34 1
    32   20   25 ar
    33   20   21 ar
    34   21   22 ar
    35   21   35 1
    36   22   23 ar
    37   22   36 1
    38   23   24 ar
    39   23   37 1
    40   24   25 ar
    41   24   38 1
    42   25   39 1
@<TRIPOS>MOLECULE
ZINC03832126
   39    42     0     0     0
SMALL
USER_CHARGES

@<TRIPOS>ATOM
      1 C1         -2.4743    4.4291   -1.4176 C.ar      1 <0>        -0.0585
      2 C2         -3.2273    5.5626   -1.6394 C.ar      1 <0>        -0.1484
      3 C3         -3.0029    6.7052   -0.8875 C.ar      1 <0>         0.1089
      4 C4         -2.0250    6.7143    0.0947 C.ar      1 <0>        -0.1499
      5 C5         -1.2689    5.5854    0.3291 C.ar      1 <0>        -0.0796
      6 C6         -1.4904    4.4306   -0.4256 C.ar      1 <0>        -0.0410
      7 C7         -0.6843    3.2193   -0.1800 C.2       1 <0>         0.0925
      8 C8         -1.1704    1.9260   -0.0513 C.2       1 <0>        -0.1164
      9 C9         -0.0594    1.0867    0.1773 C.2       1 <0>        -0.1422
     10 C10         1.0544    1.8687    0.1730 C.2       1 <0>         0.0608
     11 N1          0.6772    3.1703   -0.0446 N.pl3     1 <0>        -0.5377
     12 H1          1.2771    3.9309   -0.0941 H         1 <0>         0.4185
     13 C11         2.4405    1.3949    0.3697 C.ar      1 <0>        -0.0108
     14 C12         3.5022    2.3008    0.3369 C.ar      1 <0>        -0.1113
     15 C13         4.7930    1.8534    0.5269 C.ar      1 <0>        -0.1002
     16 C14         5.0380    0.5069    0.7380 C.ar      1 <0>        -0.0372
     17 C15         3.9896   -0.3974    0.7664 C.ar      1 <0>        -0.0998
     18 C16         2.6939    0.0387    0.5834 C.ar      1 <0>        -0.0901
     19 Cl1         6.6661   -0.0498    0.9685 Cl        1 <0>        -0.0647
     20 C17        -2.5881    1.5064   -0.1342 C.ar      1 <0>         0.0379
     21 C18        -3.5570    2.0786    0.6975 C.ar      1 <0>        -0.1597
     22 C19        -4.8664    1.6617    0.5837 C.ar      1 <0>         0.1011
     23 N2         -5.2078    0.7302   -0.2868 N.ar      1 <0>        -0.4884
     24 C20        -4.3248    0.1616   -1.0859 C.ar      1 <0>         0.1005
     25 C21        -2.9947    0.5226   -1.0423 C.ar      1 <0>        -0.1643
     26 F1         -3.7407    7.8144   -1.1126 F         1 <0>        -0.1351
     27 H2         -2.6469    3.5408   -2.0071 H         1 <0>         0.1351
     28 H3         -3.9909    5.5614   -2.4032 H         1 <0>         0.1411
     29 H4         -1.8548    7.6075    0.6775 H         1 <0>         0.1406
     30 H5         -0.5068    5.5938    1.0943 H         1 <0>         0.1324
     31 H6         -0.0874    0.0171    0.3242 H         1 <0>         0.1473
     32 H7          3.3128    3.3505    0.1673 H         1 <0>         0.1251
     33 H8          5.6147    2.5539    0.5066 H         1 <0>         0.1370
     34 H9          4.1869   -1.4462    0.9317 H         1 <0>         0.1397
     35 H10         1.8771   -0.6675    0.6050 H         1 <0>         0.1394
     36 H11        -3.2841    2.8382    1.4150 H         1 <0>         0.1313
     37 H12        -5.6221    2.1001    1.2186 H         1 <0>         0.1546
     38 H13        -4.6482   -0.5971   -1.7833 H         1 <0>         0.1559
     39 H14        -2.2776    0.0533   -1.6995 H         1 <0>         0.1355
@<TRIPOS>BOND
     1    1    6 ar
     2    1    2 ar
     3    1   27 1
     4    2    3 ar
     5    2   28 1
     6    3    4 ar
     7    3   26 1
     8    4    5 ar
     9    4   29 1
    10    5    6 ar
    11    5   30 1
    12    6    7 1
    13    7   11 1
    14    7    8 2
    15    8    9 1
    16    8   20 1
    17    9   10 2
    18    9   31 1
    19   10   11 1
    20   10   13 1
    21   11   12 1
    22   13   18 ar
    23   13   14 ar
    24   14   15 ar
    25   14   32 1
    26   15   16 ar
    27   15   33 1
    28   16   17 ar
    29   16   19 1
    30   17   18 ar
    31   17   34 1
    32   18   35 1
    33   20   25 ar
    34   20   21 ar
    35   21   22 ar
    36   21   36 1
    37   22   23 ar
    38   22   37 1
    39   23   24 ar
    40   24   25 ar
    41   24   38 1
    42   25   39 1
@<TRIPOS>MOLECULE
ZINC03832128
   38    41     0     0     0
SMALL
USER_CHARGES

@<TRIPOS>ATOM
      1 C1         -5.1185    0.4648    0.3783 C.ar      1 <0>        -0.1190
      2 C2         -4.8538    1.8201    0.4651 C.ar      1 <0>        -0.1112
      3 C3         -3.5564    2.2799    0.3728 C.ar      1 <0>        -0.1223
      4 C4         -2.5096    1.3744    0.1914 C.ar      1 <0>        -0.0196
      5 C5         -2.7842    0.0089    0.0988 C.ar      1 <0>        -0.1012
      6 C6         -4.0856   -0.4381    0.1985 C.ar      1 <0>        -0.1108
      7 C7         -1.1171    1.8599    0.0917 C.2       1 <0>         0.0687
      8 C8         -0.0157    1.0799   -0.0847 C.2       1 <0>        -0.1480
      9 C9          1.1072    1.9327   -0.1318 C.2       1 <0>        -0.1145
     10 C10         0.6405    3.2299    0.0260 C.2       1 <0>         0.0874
     11 N1         -0.7202    3.1713    0.1648 N.pl3     1 <0>        -0.5373
     12 H1         -1.3079    3.9327    0.2906 H         1 <0>         0.4184
     13 C11         1.4640    4.4544    0.0409 C.ar      1 <0>        -0.0789
     14 C12         2.6300    4.5198    0.8153 C.ar      1 <0>        -0.0458
     15 C13         3.3685    5.6890    0.7904 C.ar      1 <0>        -0.1657
     16 C14         2.9314    6.7502    0.0175 C.ar      1 <0>         0.1050
     17 N2          1.8266    6.6626   -0.6982 N.ar      1 <0>        -0.4789
     18 C15         1.0916    5.5701   -0.7122 C.ar      1 <0>         0.1106
     19 C16         2.5180    1.5210   -0.3148 C.ar      1 <0>         0.0388
     20 C17         3.2914    2.0477   -1.3551 C.ar      1 <0>        -0.1610
     21 C18         4.6024    1.6408   -1.4858 C.ar      1 <0>         0.1013
     22 N3          5.1247    0.7601   -0.6531 N.ar      1 <0>        -0.4885
     23 C19         4.4288    0.2353    0.3378 C.ar      1 <0>         0.1006
     24 C20         3.1125    0.5904    0.5443 C.ar      1 <0>        -0.1644
     25 H2         -6.1359    0.1100    0.4515 H         1 <0>         0.1252
     26 H3         -5.6646    2.5195    0.6059 H         1 <0>         0.1256
     27 H4         -3.3511    3.3380    0.4411 H         1 <0>         0.1151
     28 H5         -1.9793   -0.6965   -0.0460 H         1 <0>         0.1290
     29 H6         -4.2990   -1.4946    0.1315 H         1 <0>         0.1283
     30 H7         -0.0039    0.0039   -0.1766 H         1 <0>         0.1465
     31 H8          2.9460    3.6776    1.4131 H         1 <0>         0.1355
     32 H9          4.2748    5.7744    1.3716 H         1 <0>         0.1409
     33 H10         3.5044    7.6655   -0.0005 H         1 <0>         0.1602
     34 H11         0.1936    5.5365   -1.3113 H         1 <0>         0.1534
     35 H12         2.8689    2.7650   -2.0432 H         1 <0>         0.1298
     36 H13         5.2084    2.0444   -2.2834 H         1 <0>         0.1546
     37 H14         4.8965   -0.4822    0.9957 H         1 <0>         0.1562
     38 H15         2.5490    0.1569    1.3573 H         1 <0>         0.1356
@<TRIPOS>BOND
     1    1    6 ar
     2    1    2 ar
     3    1   25 1
     4    2    3 ar
     5    2   26 1
     6    3    4 ar
     7    3   27 1
     8    4    5 ar
     9    4    7 1
    10    5    6 ar
    11    5   28 1
    12    6   29 1
    13    7   11 1
    14    7    8 2
    15    8    9 1
    16    8   30 1
    17    9   10 2
    18    9   19 1
    19   10   11 1
    20   10   13 1
    21   11   12 1
    22   13   18 ar
    23   13   14 ar
    24   14   15 ar
    25   14   31 1
    26   15   16 ar
    27   15   32 1
    28   16   17 ar
    29   16   33 1
    30   17   18 ar
    31   18   34 1
    32   19   24 ar
    33   19   20 ar
    34   20   21 ar
    35   20   35 1
    36   21   22 ar
    37   21   36 1
    38   22   23 ar
    39   23   24 ar
    40   23   37 1
    41   24   38 1
@<TRIPOS>MOLECULE
ZINC03832130
   47    50     0     0     0
SMALL
USER_CHARGES

@<TRIPOS>ATOM
      1 C1         -1.2986   -0.7651    0.0103 C.3       1 <0>        -0.1061
      2 C2          0.0021   -0.0041    0.0020 C.ar      1 <0>         0.1306
      3 C3          1.1949   -0.6959   -0.0135 C.ar      1 <0>        -0.1642
      4 C4          2.3956    0.0222   -0.0211 C.ar      1 <0>         0.0412
      5 C5          2.3294    1.4200   -0.0125 C.ar      1 <0>        -0.1677
      6 C6          1.0935    2.0307    0.0025 C.ar      1 <0>         0.1070
      7 N1         -0.0158    1.3154    0.0093 N.ar      1 <0>        -0.4889
      8 C7          3.7006   -0.6777   -0.0374 C.2       1 <0>        -0.1163
      9 C8          4.1054   -1.7172    0.8265 C.2       1 <0>        -0.1385
     10 C9          5.3687   -2.0781    0.4716 C.2       1 <0>         0.0539
     11 N2          5.7715   -1.2930   -0.5797 N.pl3     1 <0>        -0.5361
     12 H1          6.6333   -1.3412   -1.0223 H         1 <0>         0.4191
     13 C10         4.7582   -0.4306   -0.9011 C.2       1 <0>         0.0957
     14 C11         4.7859    0.5819   -1.9742 C.ar      1 <0>        -0.0413
     15 C12         3.6924    0.7246   -2.8321 C.ar      1 <0>        -0.0574
     16 C13         3.7218    1.6764   -3.8294 C.ar      1 <0>        -0.1480
     17 C14         4.8380    2.4825   -3.9892 C.ar      1 <0>         0.1093
     18 C15         5.9280    2.3419   -3.1445 C.ar      1 <0>        -0.1497
     19 C16         5.9080    1.3977   -2.1400 C.ar      1 <0>        -0.0799
     20 F1          4.8635    3.4092   -4.9719 F         1 <0>        -0.1349
     21 C17         6.1755   -3.1359    1.1155 C.ar      1 <0>         0.0220
     22 C18         5.6515   -3.8641    2.1850 C.ar      1 <0>        -0.1183
     23 C19         6.4077   -4.8540    2.7778 C.ar      1 <0>        -0.0445
     24 C20         7.6870   -5.1182    2.3217 C.ar      1 <0>        -0.4655
     25 C21         8.2148   -4.3959    1.2661 C.ar      1 <0>        -0.0324
     26 C22         7.4671   -3.4073    0.6606 C.ar      1 <0>        -0.1418
     27 S1          8.6486   -6.3797    3.0889 S.o       1 <0>         1.3306
     28 O1          7.6812   -7.2506    3.6589 O.2       1 <0>        -0.8524
     29 C23         9.5352   -5.5119    4.4123 C.3       1 <0>        -0.4981
     30 H2         -1.6220   -0.9431   -1.0152 H         1 <0>         0.0784
     31 H3         -1.1579   -1.7195    0.5177 H         1 <0>         0.0745
     32 H4         -2.0567   -0.1833    0.5346 H         1 <0>         0.0778
     33 H5          1.2021   -1.7759   -0.0201 H         1 <0>         0.1345
     34 H6          3.2330    2.0115   -0.0176 H         1 <0>         0.1308
     35 H7          1.0322    3.1089    0.0089 H         1 <0>         0.1551
     36 H8          3.5184   -2.1496    1.6233 H         1 <0>         0.1467
     37 H9          2.8243    0.0936   -2.7118 H         1 <0>         0.1347
     38 H10         2.8753    1.7909   -4.4901 H         1 <0>         0.1412
     39 H11         6.7947    2.9731   -3.2736 H         1 <0>         0.1408
     40 H12         6.7581    1.2886   -1.4829 H         1 <0>         0.1322
     41 H13         4.6546   -3.6561    2.5447 H         1 <0>         0.1315
     42 H14         6.0018   -5.4212    3.6024 H         1 <0>         0.1311
     43 H15         9.2141   -4.6069    0.9152 H         1 <0>         0.1409
     44 H16         7.8800   -2.8447   -0.1637 H         1 <0>         0.1222
     45 H17         8.8163   -5.0676    5.1007 H         1 <0>         0.0811
     46 H18        10.1656   -6.2189    4.9517 H         1 <0>         0.1079
     47 H19        10.1566   -4.7277    3.9798 H         1 <0>         0.1111
@<TRIPOS>BOND
     1    1    2 1
     2    1   30 1
     3    1   31 1
     4    1   32 1
     5    2    7 ar
     6    2    3 ar
     7    3    4 ar
     8    3   33 1
     9    4    5 ar
    10    4    8 1
    11    5    6 ar
    12    5   34 1
    13    6    7 ar
    14    6   35 1
    15    8   13 2
    16    8    9 1
    17    9   10 2
    18    9   36 1
    19   10   11 1
    20   10   21 1
    21   11   12 1
    22   11   13 1
    23   13   14 1
    24   14   19 ar
    25   14   15 ar
    26   15   16 ar
    27   15   37 1
    28   16   17 ar
    29   16   38 1
    30   17   18 ar
    31   17   20 1
    32   18   19 ar
    33   18   39 1
    34   19   40 1
    35   21   26 ar
    36   21   22 ar
    37   22   23 ar
    38   22   41 1
    39   23   24 ar
    40   23   42 1
    41   24   25 ar
    42   24   27 1
    43   25   26 ar
    44   25   43 1
    45   26   44 1
    46   27   28 2
    47   27   29 1
    48   29   45 1
    49   29   46 1
    50   29   47 1
@<TRIPOS>MOLECULE
ZINC03832140
   47    50     0     0     0
SMALL
USER_CHARGES

@<TRIPOS>ATOM
      1 C1          7.6834   -4.0978    2.6361 C.3       1 <0>        -0.0418
      2 C2          6.6968   -3.1113    0.6577 C.3       1 <0>         0.0044
      3 C3          5.9967   -1.8614    0.1197 C.3       1 <0>        -0.1385
      4 C4          4.6461   -1.6966    0.8220 C.3       1 <0>         0.2371
      5 C5          4.8730   -1.6100    2.3338 C.3       1 <0>        -0.1704
      6 C6          5.6057   -2.8672    2.8076 C.3       1 <0>         0.0050
      7 C7          3.9784   -0.4346    0.3398 C.2       1 <0>         0.1462
      8 N1          2.8174   -0.0007    0.7382 N.2       1 <0>        -0.4433
      9 C8          2.5376    1.1524    0.0965 C.2       1 <0>         0.0682
     10 C9          3.6019    1.4160   -0.7423 C.2       1 <0>         0.0259
     11 O1          4.4883    0.4114   -0.5644 O.3       1 <0>        -0.1784
     12 C10         3.7452    2.5689   -1.6506 C.ar      1 <0>         0.0129
     13 C11         2.7014    2.9457   -2.5071 C.ar      1 <0>        -0.1358
     14 C12         2.8775    4.0325   -3.3363 C.ar      1 <0>         0.1128
     15 N2          4.0116    4.7079   -3.3376 N.ar      1 <0>        -0.4667
     16 C13         5.0212    4.3848   -2.5511 C.ar      1 <0>         0.1091
     17 C14         4.9311    3.3154   -1.6862 C.ar      1 <0>        -0.1485
     18 C15         1.3168    1.9763    0.2567 C.ar      1 <0>        -0.0432
     19 C16         0.0669    1.3643    0.3485 C.ar      1 <0>        -0.0546
     20 C17        -1.0674    2.1360    0.4919 C.ar      1 <0>        -0.1524
     21 C18        -0.9655    3.5165    0.5554 C.ar      1 <0>         0.1208
     22 C19         0.2740    4.1292    0.4647 C.ar      1 <0>        -0.1499
     23 C20         1.4137    3.3663    0.3159 C.ar      1 <0>        -0.0643
     24 F1         -2.0789    4.2678    0.7007 F         1 <0>        -0.1300
     25 O2          3.8139   -2.8201    0.5264 O.3       1 <0>        -0.5334
     26 H1          8.6600   -4.1124    2.1522 H         1 <0>         0.1237
     27 H2          7.8125   -3.9751    3.7115 H         1 <0>         0.1235
     28 H3          7.1653   -5.0359    2.4371 H         1 <0>         0.1252
     29 H4          6.0830   -3.9883    0.4521 H         1 <0>         0.1429
     30 H5          7.6652   -3.2235    0.1701 H         1 <0>         0.1371
     31 H6          5.8384   -1.9665   -0.9536 H         1 <0>         0.1278
     32 H7          6.6162   -0.9854    0.3121 H         1 <0>         0.1093
     33 H8          5.4750   -0.7303    2.5616 H         1 <0>         0.1040
     34 H9          3.9118   -1.5355    2.8424 H         1 <0>         0.1296
     35 H10         4.9970   -3.7453    2.5920 H         1 <0>         0.1404
     36 H11         5.7815   -2.8022    3.8814 H         1 <0>         0.1374
     37 H12         1.7723    2.3952   -2.5144 H         1 <0>         0.1422
     38 H13         2.0780    4.3331   -3.9973 H         1 <0>         0.1688
     39 H14         5.9307    4.9662   -2.5861 H         1 <0>         0.1666
     40 H15         5.7612    3.0568   -1.0456 H         1 <0>         0.1390
     41 H16        -0.0131    0.2883    0.3028 H         1 <0>         0.1374
     42 H17        -2.0362    1.6633    0.5586 H         1 <0>         0.1449
     43 H18         0.3480    5.2057    0.5103 H         1 <0>         0.1444
     44 H19         2.3794    3.8448    0.2449 H         1 <0>         0.1305
     45 H20         2.9413   -2.7831    0.9413 H         1 <0>         0.4043
     46 N3          6.9077   -2.9545    2.1125 N.4       1 <0>        -0.3987
     47 H21         7.4340   -2.0892    2.2813 H         1 <0>         0.4282
@<TRIPOS>BOND
     1    1   26 1
     2    1   27 1
     3    1   28 1
     4    1   46 1
     5    2    3 1
     6    2   29 1
     7    2   30 1
     8    2   46 1
     9    3    4 1
    10    3   31 1
    11    3   32 1
    12    4    5 1
    13    4    7 1
    14    4   25 1
    15    5    6 1
    16    5   33 1
    17    5   34 1
    18    6   35 1
    19    6   36 1
    20    6   46 1
    21    7   11 1
    22    7    8 2
    23    8    9 1
    24    9   10 2
    25    9   18 1
    26   10   11 1
    27   10   12 1
    28   12   17 ar
    29   12   13 ar
    30   13   14 ar
    31   13   37 1
    32   14   15 ar
    33   14   38 1
    34   15   16 ar
    35   16   17 ar
    36   16   39 1
    37   17   40 1
    38   18   23 ar
    39   18   19 ar
    40   19   20 ar
    41   19   41 1
    42   20   21 ar
    43   20   42 1
    44   21   22 ar
    45   21   24 1
    46   22   23 ar
    47   22   43 1
    48   23   44 1
    49   25   45 1
    50   46   47 1
@<TRIPOS>MOLECULE
ZINC03832145
   65    69     0     0     0
SMALL
USER_CHARGES

@<TRIPOS>ATOM
      1 C1         -1.8373    7.5809   -0.0943 C.ar      1 <0>        -0.1080
      2 C2         -0.6372    7.4709    0.5859 C.ar      1 <0>        -0.1163
      3 C3         -0.0011    6.2505    0.6760 C.ar      1 <0>        -0.1098
      4 C4         -0.5710    5.1237    0.0779 C.ar      1 <0>        -0.0350
      5 C5         -1.7799    5.2435   -0.6121 C.ar      1 <0>        -0.0867
      6 C6         -2.4076    6.4692   -0.6891 C.ar      1 <0>        -0.1143
      7 C7          0.1037    3.8146    0.1695 C.2       1 <0>         0.1001
      8 C8         -0.5015    2.6020    0.4666 C.2       1 <0>        -0.1191
      9 C9          0.5107    1.6193    0.4522 C.2       1 <0>        -0.1411
     10 C10         1.6826    2.2403    0.1452 C.2       1 <0>         0.0514
     11 N1          1.4385    3.5792   -0.0280 N.pl3     1 <0>        -0.5389
     12 H1          2.1026    4.2495   -0.2531 H         1 <0>         0.4174
     13 C11         2.9993    1.5814    0.0188 C.ar      1 <0>        -0.0114
     14 C12         4.1296    2.3333   -0.3085 C.ar      1 <0>        -0.1039
     15 C13         5.3568    1.7164   -0.4203 C.ar      1 <0>        -0.1264
     16 C14         5.4684    0.3455   -0.2191 C.ar      1 <0>         0.1250
     17 C15         4.3444   -0.4069    0.1017 C.ar      1 <0>        -0.1060
     18 C16         3.1150    0.2045    0.2208 C.ar      1 <0>        -0.0844
     19 N2          6.7143   -0.2782   -0.3391 N.am      1 <0>        -0.6616
     20 C17         6.7944   -1.5389   -0.8088 C.2       1 <0>         0.5184
     21 O1          5.7976   -2.1005   -1.2114 O.2       1 <0>        -0.5104
     22 C18         8.1225   -2.2507   -0.8338 C.3       1 <0>        -0.1734
     23 C19         7.9369   -3.6563   -1.4089 C.3       1 <0>         0.0104
     24 C20        10.1580   -3.7029   -2.3708 C.3       1 <0>        -0.0081
     25 C21        11.5362   -4.3595   -2.2632 C.3       1 <0>        -0.1466
     26 C22        11.4123   -5.8509   -2.5869 C.3       1 <0>        -0.1401
     27 C23        10.4054   -6.4914   -1.6275 C.3       1 <0>        -0.1473
     28 C24         9.0600   -5.7730   -1.7535 C.3       1 <0>        -0.0011
     29 C25        -1.9386    2.3813    0.7482 C.ar      1 <0>         0.0377
     30 C26        -2.5884    3.0874    1.7665 C.ar      1 <0>        -0.1583
     31 C27        -3.9289    2.8550    1.9911 C.ar      1 <0>         0.1022
     32 N3         -4.5941    1.9734    1.2685 N.ar      1 <0>        -0.4874
     33 C28        -4.0181    1.2825    0.3027 C.ar      1 <0>         0.1006
     34 C29        -2.6826    1.4566    0.0071 C.ar      1 <0>        -0.1656
     35 H2         -2.3313    8.5389   -0.1610 H         1 <0>         0.1269
     36 H3         -0.1979    8.3427    1.0477 H         1 <0>         0.1271
     37 H4          0.9351    6.1659    1.2078 H         1 <0>         0.1198
     38 H5         -2.2239    4.3776   -1.0806 H         1 <0>         0.1237
     39 H6         -3.3443    6.5624   -1.2187 H         1 <0>         0.1281
     40 H7          0.3790    0.5648    0.6451 H         1 <0>         0.1454
     41 H8          4.0428    3.3977   -0.4694 H         1 <0>         0.1237
     42 H9          6.2322    2.2980   -0.6691 H         1 <0>         0.1301
     43 H10         4.4345   -1.4718    0.2574 H         1 <0>         0.1371
     44 H11         2.2421   -0.3807    0.4697 H         1 <0>         0.1361
     45 H12         7.5209    0.1966   -0.0843 H         1 <0>         0.4146
     46 H13         8.8221   -1.6929   -1.4562 H         1 <0>         0.1191
     47 H14         8.5156   -2.3221    0.1803 H         1 <0>         0.1211
     48 H15         7.2373   -4.2142   -0.7865 H         1 <0>         0.1397
     49 H16         7.5438   -3.5850   -2.4231 H         1 <0>         0.1411
     50 H17         9.7816   -3.8131   -3.3878 H         1 <0>         0.1320
     51 H18        10.2403   -2.6437   -2.1269 H         1 <0>         0.1268
     52 H19        11.9193   -4.2376   -1.2500 H         1 <0>         0.0876
     53 H20        12.2201   -3.8893   -2.9698 H         1 <0>         0.1121
     54 H21        12.3837   -6.3311   -2.4693 H         1 <0>         0.0944
     55 H22        11.0668   -5.9744   -3.6133 H         1 <0>         0.0822
     56 H23        10.7707   -6.4031   -0.6044 H         1 <0>         0.0876
     57 H24        10.2808   -7.5443   -1.8804 H         1 <0>         0.1130
     58 H25         8.3448   -6.2174   -1.0614 H         1 <0>         0.1300
     59 H26         8.6889   -5.8736   -2.7735 H         1 <0>         0.1315
     60 H27        -2.0490    3.8067    2.3649 H         1 <0>         0.1309
     61 H28        -4.4402    3.3983    2.7719 H         1 <0>         0.1552
     62 H29        -4.6007    0.5708   -0.2635 H         1 <0>         0.1558
     63 H30        -2.2179    0.8881   -0.7848 H         1 <0>         0.1340
     64 N4          9.2425   -4.3479   -1.4055 N.4       1 <0>        -0.3942
     65 H31         9.6510   -4.2844   -0.4656 H         1 <0>         0.4257
@<TRIPOS>BOND
     1    1    6 ar
     2    1    2 ar
     3    1   35 1
     4    2    3 ar
     5    2   36 1
     6    3    4 ar
     7    3   37 1
     8    4    5 ar
     9    4    7 1
    10    5    6 ar
    11    5   38 1
    12    6   39 1
    13    7   11 1
    14    7    8 2
    15    8    9 1
    16    8   29 1
    17    9   10 2
    18    9   40 1
    19   10   11 1
    20   10   13 1
    21   11   12 1
    22   13   18 ar
    23   13   14 ar
    24   14   15 ar
    25   14   41 1
    26   15   16 ar
    27   15   42 1
    28   16   17 ar
    29   16   19 1
    30   17   18 ar
    31   17   43 1
    32   18   44 1
    33   19   20 am
    34   19   45 1
    35   20   21 2
    36   20   22 1
    37   22   23 1
    38   22   46 1
    39   22   47 1
    40   23   48 1
    41   23   49 1
    42   23   64 1
    43   24   25 1
    44   24   50 1
    45   24   51 1
    46   24   64 1
    47   25   26 1
    48   25   52 1
    49   25   53 1
    50   26   27 1
    51   26   54 1
    52   26   55 1
    53   27   28 1
    54   27   56 1
    55   27   57 1
    56   28   58 1
    57   28   59 1
    58   28   64 1
    59   29   34 ar
    60   29   30 ar
    61   30   31 ar
    62   30   60 1
    63   31   32 ar
    64   31   61 1
    65   32   33 ar
    66   33   34 ar
    67   33   62 1
    68   34   63 1
    69   64   65 1
@<TRIPOS>MOLECULE
ZINC03832150
   35    38     0     0     0
SMALL
USER_CHARGES

@<TRIPOS>ATOM
      1 C1         -1.0931    1.5516    0.1540 C.ar      1 <0>        -0.1182
      2 C2          0.1420    0.9399    0.2744 C.ar      1 <0>        -0.1182
      3 C3          1.2960    1.6948    0.2330 C.ar      1 <0>        -0.1074
      4 C4          1.2153    3.0789    0.0746 C.ar      1 <0>        -0.0113
      5 C5         -0.0337    3.6904   -0.0410 C.ar      1 <0>        -0.1012
      6 C6         -1.1801    2.9241    0.0020 C.ar      1 <0>        -0.1174
      7 C7          2.4491    3.8947    0.0288 C.2       1 <0>        -0.1061
      8 C8          3.4843    3.8677   -1.0130 C.ar      1 <0>        -0.1353
      9 C9          3.6511    3.1437   -2.1953 C.ar      1 <0>        -0.0243
     10 C10         4.7824    3.3856   -2.9522 C.ar      1 <0>        -0.1986
     11 C11         5.7022    4.3274   -2.5177 C.ar      1 <0>         0.1428
     12 N1          5.5254    4.9984   -1.3995 N.ar      1 <0>        -0.4991
     13 C12         4.4588    4.8087   -0.6325 C.ar      1 <0>         0.2931
     14 N2          4.0536    5.3728    0.5550 N.pl3     1 <0>        -0.5699
     15 H1          4.5437    6.0548    1.0404 H         1 <0>         0.4217
     16 C13         2.8525    4.8358    0.9528 C.2       1 <0>         0.1433
     17 C14         2.1135    5.2050    2.1762 C.ar      1 <0>        -0.0490
     18 C15         1.9254    6.5501    2.5025 C.ar      1 <0>        -0.0740
     19 C16         1.2302    6.8890    3.6440 C.ar      1 <0>        -0.1514
     20 C17         0.7276    5.8980    4.4726 C.ar      1 <0>         0.1122
     21 C18         0.9157    4.5616    4.1566 C.ar      1 <0>        -0.1498
     22 C19         1.6047    4.2107    3.0150 C.ar      1 <0>        -0.0525
     23 F1          0.0521    6.2360    5.5927 F         1 <0>        -0.1347
     24 H2         -1.9933    0.9556    0.1825 H         1 <0>         0.1218
     25 H3          0.2031   -0.1315    0.3966 H         1 <0>         0.1235
     26 H4          2.2597    1.2156    0.3226 H         1 <0>         0.1219
     27 H5         -0.1027    4.7612   -0.1634 H         1 <0>         0.1197
     28 H6         -2.1474    3.3961   -0.0873 H         1 <0>         0.1228
     29 H7          2.9178    2.4155   -2.5091 H         1 <0>         0.1352
     30 H8          4.9477    2.8465   -3.8733 H         1 <0>         0.1402
     31 H9          6.5851    4.5145   -3.1108 H         1 <0>         0.1634
     32 H10         2.3204    7.3232    1.8600 H         1 <0>         0.1343
     33 H11         1.0806    7.9287    3.8952 H         1 <0>         0.1416
     34 H12         0.5222    3.7937    4.8061 H         1 <0>         0.1424
     35 H13         1.7510    3.1690    2.7700 H         1 <0>         0.1386
@<TRIPOS>BOND
     1    1    6 ar
     2    1    2 ar
     3    1   24 1
     4    2    3 ar
     5    2   25 1
     6    3    4 ar
     7    3   26 1
     8    4    5 ar
     9    4    7 1
    10    5    6 ar
    11    5   27 1
    12    6   28 1
    13    7   16 2
    14    7    8 1
    15    8   13 ar
    16    8    9 ar
    17    9   10 ar
    18    9   29 1
    19   10   11 ar
    20   10   30 1
    21   11   12 ar
    22   11   31 1
    23   12   13 ar
    24   13   14 1
    25   14   15 1
    26   14   16 1
    27   16   17 1
    28   17   22 ar
    29   17   18 ar
    30   18   19 ar
    31   18   32 1
    32   19   20 ar
    33   19   33 1
    34   20   21 ar
    35   20   23 1
    36   21   22 ar
    37   21   34 1
    38   22   35 1
@<TRIPOS>MOLECULE
ZINC03832156
   47    50     0     0     0
SMALL
USER_CHARGES

@<TRIPOS>ATOM
      1 C1         -3.3759    1.1409   -2.3675 C.3       1 <0>        -0.0417
      2 C2         -2.2651    1.5294   -0.2519 C.3       1 <0>         0.0069
      3 C3         -1.4493    0.8584    0.8554 C.3       1 <0>        -0.1440
      4 C4         -0.1056    0.3969    0.2845 C.3       1 <0>         0.2326
      5 C5         -0.3566   -0.5568   -0.8868 C.3       1 <0>        -0.1691
      6 C6         -1.2054    0.1561   -1.9440 C.3       1 <0>         0.0038
      7 C7          0.6784   -0.3166    1.3557 C.2       1 <0>         0.0163
      8 N1          1.9024   -0.7833    1.2995 N.2       1 <0>        -0.4702
      9 C8          2.4620   -1.3920    2.3295 C.2       1 <0>         0.1218
     10 C9          1.6975   -1.5208    3.4873 C.2       1 <0>        -0.1207
     11 S1          0.1870   -0.7171    2.9717 S.3       1 <0>         0.1172
     12 C10         2.0416   -2.1414    4.7807 C.ar      1 <0>         0.0226
     13 C11         3.2562   -1.8530    5.4177 C.ar      1 <0>        -0.1378
     14 C12         3.5340   -2.4514    6.6279 C.ar      1 <0>         0.1114
     15 N2          2.6801   -3.2927    7.1803 N.ar      1 <0>        -0.4698
     16 C13         1.5280   -3.5965    6.6122 C.ar      1 <0>         0.1097
     17 C14         1.1658   -3.0404    5.4042 C.ar      1 <0>        -0.1542
     18 C15         3.8458   -1.9158    2.2570 C.ar      1 <0>        -0.0483
     19 C16         4.8472   -1.1639    1.6428 C.ar      1 <0>        -0.0542
     20 C17         6.1352   -1.6540    1.5816 C.ar      1 <0>        -0.1542
     21 C18         6.4327   -2.8956    2.1201 C.ar      1 <0>         0.1193
     22 C19         5.4403   -3.6485    2.7270 C.ar      1 <0>        -0.1509
     23 C20         4.1503   -3.1649    2.7975 C.ar      1 <0>        -0.0632
     24 F1          7.6944   -3.3739    2.0528 F         1 <0>        -0.1309
     25 O1          0.6337    1.5310   -0.1730 O.3       1 <0>        -0.5367
     26 H1         -2.9352    2.0505   -2.7756 H         1 <0>         0.1250
     27 H2         -3.5181    0.4151   -3.1681 H         1 <0>         0.1233
     28 H3         -4.3392    1.3755   -1.9145 H         1 <0>         0.1237
     29 H4         -3.2283    1.8464    0.1479 H         1 <0>         0.1372
     30 H5         -1.7236    2.3982   -0.6263 H         1 <0>         0.1433
     31 H6         -1.9964   -0.0025    1.2397 H         1 <0>         0.1076
     32 H7         -1.2766    1.5703    1.6625 H         1 <0>         0.1282
     33 H8          0.5963   -0.8552   -1.3238 H         1 <0>         0.1258
     34 H9         -0.8865   -1.4399   -0.5300 H         1 <0>         0.1018
     35 H10        -1.3989   -0.5244   -2.7732 H         1 <0>         0.1354
     36 H11        -0.6688    1.0314   -2.3102 H         1 <0>         0.1395
     37 H12         3.9616   -1.1692    4.9693 H         1 <0>         0.1395
     38 H13         4.4654   -2.2322    7.1289 H         1 <0>         0.1660
     39 H14         0.8601   -4.2906    7.1005 H         1 <0>         0.1654
     40 H15         0.2213   -3.2932    4.9454 H         1 <0>         0.1380
     41 H16         4.6154   -0.1978    1.2192 H         1 <0>         0.1355
     42 H17         6.9121   -1.0708    1.1099 H         1 <0>         0.1432
     43 H18         5.6771   -4.6157    3.1453 H         1 <0>         0.1431
     44 H19         3.3773   -3.7528    3.2701 H         1 <0>         0.1305
     45 H20         1.4969    1.3119   -0.5499 H         1 <0>         0.4024
     46 N3         -2.4941    0.5528   -1.3381 N.4       1 <0>        -0.3982
     47 H21        -2.9485   -0.2805   -0.9464 H         1 <0>         0.4279
@<TRIPOS>BOND
     1    1   26 1
     2    1   27 1
     3    1   28 1
     4    1   46 1
     5    2    3 1
     6    2   29 1
     7    2   30 1
     8    2   46 1
     9    3    4 1
    10    3   31 1
    11    3   32 1
    12    4    5 1
    13    4    7 1
    14    4   25 1
    15    5    6 1
    16    5   33 1
    17    5   34 1
    18    6   35 1
    19    6   36 1
    20    6   46 1
    21    7   11 1
    22    7    8 2
    23    8    9 1
    24    9   10 2
    25    9   18 1
    26   10   11 1
    27   10   12 1
    28   12   17 ar
    29   12   13 ar
    30   13   14 ar
    31   13   37 1
    32   14   15 ar
    33   14   38 1
    34   15   16 ar
    35   16   17 ar
    36   16   39 1
    37   17   40 1
    38   18   23 ar
    39   18   19 ar
    40   19   20 ar
    41   19   41 1
    42   20   21 ar
    43   20   42 1
    44   21   22 ar
    45   21   24 1
    46   22   23 ar
    47   22   43 1
    48   23   44 1
    49   25   45 1
    50   46   47 1
@<TRIPOS>MOLECULE
ZINC03832157
   40    43     0     0     0
SMALL
USER_CHARGES

@<TRIPOS>ATOM
      1 C1          5.0377    0.5063    0.7419 C.ar      1 <0>        -0.1186
      2 C2          3.9900   -0.3971    0.7696 C.ar      1 <0>        -0.1109
      3 C3          2.6942    0.0389    0.5856 C.ar      1 <0>        -0.1008
      4 C4          2.4413    1.3949    0.3706 C.ar      1 <0>        -0.0206
      5 C5          3.5035    2.3001    0.3377 C.ar      1 <0>        -0.1220
      6 C6          4.7939    1.8516    0.5293 C.ar      1 <0>        -0.1115
      7 C7          1.0554    1.8692    0.1727 C.2       1 <0>         0.0711
      8 C8         -0.0593    1.0867    0.1771 C.2       1 <0>        -0.1496
      9 C9         -1.1694    1.9249   -0.0512 C.2       1 <0>        -0.1082
     10 C10        -0.6827    3.2193   -0.1816 C.2       1 <0>         0.0747
     11 N1          0.6797    3.1695   -0.0455 N.pl3     1 <0>        -0.5357
     12 H1          1.2800    3.9298   -0.0952 H         1 <0>         0.4189
     13 C11        -1.4871    4.4289   -0.4277 C.ar      1 <0>         0.0055
     14 C12        -2.4714    4.4242   -1.4222 C.ar      1 <0>        -0.0911
     15 C13        -3.2208    5.5435   -1.6462 C.ar      1 <0>        -0.0633
     16 C14        -2.9967    6.6983   -0.8894 C.ar      1 <0>        -0.0215
     17 C15        -2.0089    6.7050    0.1011 C.ar      1 <0>        -0.0645
     18 C16        -1.2631    5.5842    0.3293 C.ar      1 <0>        -0.1116
     19 C17        -3.7783    7.8741   -1.1288 C.1       1 <0>         0.2478
     20 N2         -4.3984    8.8068   -1.3188 N.1       1 <0>        -0.4071
     21 C18        -2.5873    1.5049   -0.1340 C.ar      1 <0>         0.0370
     22 C19        -3.5561    2.0770    0.6976 C.ar      1 <0>        -0.1596
     23 C20        -4.8656    1.6599    0.5840 C.ar      1 <0>         0.1013
     24 N3         -5.2069    0.7284   -0.2863 N.ar      1 <0>        -0.4885
     25 C21        -4.3239    0.1598   -1.0854 C.ar      1 <0>         0.1005
     26 C22        -2.9938    0.5211   -1.0419 C.ar      1 <0>        -0.1636
     27 H2          6.0502    0.1599    0.8872 H         1 <0>         0.1252
     28 H3          4.1871   -1.4458    0.9360 H         1 <0>         0.1283
     29 H4          1.8773   -0.6671    0.6081 H         1 <0>         0.1293
     30 H5          3.3150    3.3498    0.1674 H         1 <0>         0.1153
     31 H6          5.6162    2.5516    0.5088 H         1 <0>         0.1255
     32 H7         -0.0872    0.0171    0.3241 H         1 <0>         0.1465
     33 H8         -2.6415    3.5340   -2.0096 H         1 <0>         0.1358
     34 H9         -3.9838    5.5384   -2.4105 H         1 <0>         0.1380
     35 H10        -1.8358    7.5969    0.6850 H         1 <0>         0.1375
     36 H11        -0.5002    5.5896    1.0937 H         1 <0>         0.1331
     37 H12        -3.2832    2.8368    1.4150 H         1 <0>         0.1320
     38 H13        -5.6214    2.0985    1.2187 H         1 <0>         0.1546
     39 H14        -4.6473   -0.5989   -1.7826 H         1 <0>         0.1556
     40 H15        -2.2766    0.0518   -1.6991 H         1 <0>         0.1355
@<TRIPOS>BOND
     1    1    6 ar
     2    1    2 ar
     3    1   27 1
     4    2    3 ar
     5    2   28 1
     6    3    4 ar
     7    3   29 1
     8    4    5 ar
     9    4    7 1
    10    5    6 ar
    11    5   30 1
    12    6   31 1
    13    7   11 1
    14    7    8 2
    15    8    9 1
    16    8   32 1
    17    9   10 2
    18    9   21 1
    19   10   11 1
    20   10   13 1
    21   11   12 1
    22   13   18 ar
    23   13   14 ar
    24   14   15 ar
    25   14   33 1
    26   15   16 ar
    27   15   34 1
    28   16   17 ar
    29   16   19 1
    30   17   18 ar
    31   17   35 1
    32   18   36 1
    33   19   20 3
    34   21   26 ar
    35   21   22 ar
    36   22   23 ar
    37   22   37 1
    38   23   24 ar
    39   23   38 1
    40   24   25 ar
    41   25   26 ar
    42   25   39 1
    43   26   40 1
@<TRIPOS>MOLECULE
ZINC03832162
   39    42     0     0     0
SMALL
USER_CHARGES

@<TRIPOS>ATOM
      1 C1         -3.0030    6.7041   -0.8874 C.ar      1 <0>        -0.1100
      2 C2         -2.0267    6.7137    0.0934 C.ar      1 <0>        -0.1167
      3 C3         -1.2697    5.5851    0.3285 C.ar      1 <0>        -0.1092
      4 C4         -1.4904    4.4303   -0.4262 C.ar      1 <0>        -0.0318
      5 C5         -2.4741    4.4296   -1.4183 C.ar      1 <0>        -0.0871
      6 C6         -3.2274    5.5637   -1.6385 C.ar      1 <0>        -0.1152
      7 C7         -0.6841    3.2189   -0.1808 C.2       1 <0>         0.0956
      8 C8         -1.1702    1.9258   -0.0514 C.2       1 <0>        -0.1205
      9 C9         -0.0593    1.0867    0.1772 C.2       1 <0>        -0.1420
     10 C10         1.0545    1.8690    0.1731 C.2       1 <0>         0.0570
     11 N1          0.6774    3.1700   -0.0450 N.pl3     1 <0>        -0.5378
     12 H1          1.2772    3.9307   -0.0948 H         1 <0>         0.4180
     13 C11         2.4406    1.3954    0.3707 C.ar      1 <0>        -0.0092
     14 C12         3.5022    2.3014    0.3379 C.ar      1 <0>        -0.1120
     15 C13         4.7931    1.8540    0.5273 C.ar      1 <0>        -0.1000
     16 C14         5.0381    0.5077    0.7398 C.ar      1 <0>        -0.0379
     17 C15         3.9897   -0.3965    0.7686 C.ar      1 <0>        -0.0996
     18 C16         2.6940    0.0394    0.5853 C.ar      1 <0>        -0.0908
     19 Cl1         6.6662   -0.0486    0.9713 Cl        1 <0>        -0.0652
     20 C17        -2.5881    1.5060   -0.1340 C.ar      1 <0>         0.0405
     21 C18        -3.5569    2.0784    0.6976 C.ar      1 <0>        -0.1585
     22 C19        -4.8662    1.6611    0.5844 C.ar      1 <0>         0.1008
     23 N2         -5.2077    0.7295   -0.2857 N.ar      1 <0>        -0.4892
     24 C20        -4.3248    0.1609   -1.0851 C.ar      1 <0>         0.0998
     25 C21        -2.9947    0.5220   -1.0418 C.ar      1 <0>        -0.1649
     26 H2         -3.5928    7.5908   -1.0672 H         1 <0>         0.1257
     27 H3         -1.8575    7.6070    0.6763 H         1 <0>         0.1265
     28 H4         -0.5084    5.5938    1.0945 H         1 <0>         0.1207
     29 H5         -2.6470    3.5418   -2.0085 H         1 <0>         0.1238
     30 H6         -3.9912    5.5633   -2.4020 H         1 <0>         0.1271
     31 H7         -0.0872    0.0171    0.3241 H         1 <0>         0.1466
     32 H8          3.3127    3.3509    0.1678 H         1 <0>         0.1248
     33 H9          5.6148    2.5545    0.5059 H         1 <0>         0.1368
     34 H10         4.1870   -1.4453    0.9347 H         1 <0>         0.1396
     35 H11         1.8773   -0.6668    0.6073 H         1 <0>         0.1392
     36 H12        -3.2838    2.8382    1.4149 H         1 <0>         0.1307
     37 H13        -5.6218    2.0994    1.2196 H         1 <0>         0.1542
     38 H14        -4.6484   -0.5976   -1.7825 H         1 <0>         0.1555
     39 H15        -2.2777    0.0526   -1.6989 H         1 <0>         0.1348
@<TRIPOS>BOND
     1    1    6 ar
     2    1    2 ar
     3    1   26 1
     4    2    3 ar
     5    2   27 1
     6    3    4 ar
     7    3   28 1
     8    4    5 ar
     9    4    7 1
    10    5    6 ar
    11    5   29 1
    12    6   30 1
    13    7   11 1
    14    7    8 2
    15    8    9 1
    16    8   20 1
    17    9   10 2
    18    9   31 1
    19   10   11 1
    20   10   13 1
    21   11   12 1
    22   13   18 ar
    23   13   14 ar
    24   14   15 ar
    25   14   32 1
    26   15   16 ar
    27   15   33 1
    28   16   17 ar
    29   16   19 1
    30   17   18 ar
    31   17   34 1
    32   18   35 1
    33   20   25 ar
    34   20   21 ar
    35   21   22 ar
    36   21   36 1
    37   22   23 ar
    38   22   37 1
    39   23   24 ar
    40   24   25 ar
    41   24   38 1
    42   25   39 1
@<TRIPOS>MOLECULE
ZINC03832163
   38    41     0     0     0
SMALL
USER_CHARGES

@<TRIPOS>ATOM
      1 C1          2.4099   -2.2159   -1.4404 C.ar      1 <0>        -0.0715
      2 C2          2.7439   -3.5415   -1.6269 C.ar      1 <0>        -0.1496
      3 C3          2.2535   -4.5096   -0.7655 C.ar      1 <0>         0.1042
      4 C4          1.4310   -4.1511    0.2904 C.ar      1 <0>        -0.1506
      5 C5          1.0962   -2.8275    0.4883 C.ar      1 <0>        -0.0739
      6 C6          1.5869   -1.8498   -0.3762 C.ar      1 <0>        -0.0332
      7 C7          1.2297   -0.4262   -0.1681 C.2       1 <0>        -0.1049
      8 C8         -0.0733    0.1165   -0.0864 C.2       1 <0>        -0.1682
      9 C9          0.0663    1.4546    0.1086 C.2       1 <0>         0.0412
     10 O1          1.3775    1.7558    0.1501 O.3       1 <0>        -0.1518
     11 C10         2.1061    0.6345   -0.0150 C.2       1 <0>         0.0403
     12 C11         3.5772    0.5519   -0.0303 C.ar      1 <0>         0.0243
     13 C12         4.2527   -0.4214    0.7202 C.ar      1 <0>        -0.1397
     14 C13         5.6293   -0.4647    0.6723 C.ar      1 <0>         0.1058
     15 N1          6.3102    0.3989   -0.0580 N.ar      1 <0>        -0.4760
     16 C14         5.7153    1.3339   -0.7753 C.ar      1 <0>         0.1044
     17 C15         4.3420    1.4479   -0.7912 C.ar      1 <0>        -0.1506
     18 C16        -1.0414    2.4222    0.2464 C.ar      1 <0>        -0.0166
     19 C17        -2.3660    1.9864    0.1736 C.ar      1 <0>        -0.0828
     20 C18        -3.3958    2.8938    0.3083 C.ar      1 <0>        -0.1048
     21 C19        -3.1184    4.2363    0.5048 C.ar      1 <0>        -0.0275
     22 C20        -1.8067    4.6756    0.5722 C.ar      1 <0>        -0.1057
     23 C21        -0.7682    3.7772    0.4443 C.ar      1 <0>        -0.0876
     24 Cl1        -4.4201    5.3734    0.6668 Cl        1 <0>        -0.0609
     25 F1          2.5786   -5.8070   -0.9553 F         1 <0>        -0.1368
     26 H1          2.7888   -1.4626   -2.1152 H         1 <0>         0.1302
     27 H2          3.3852   -3.8255   -2.4482 H         1 <0>         0.1386
     28 H3          1.0511   -4.9091    0.9593 H         1 <0>         0.1399
     29 H4          0.4548   -2.5490    1.3114 H         1 <0>         0.1359
     30 H5         -1.0027   -0.4282   -0.1642 H         1 <0>         0.1603
     31 H6          3.7024   -1.1285    1.3233 H         1 <0>         0.1396
     32 H7          6.1588   -1.2127    1.2437 H         1 <0>         0.1631
     33 H8          6.3133    2.0193   -1.3576 H         1 <0>         0.1628
     34 H9          3.8621    2.2151   -1.3807 H         1 <0>         0.1404
     35 H10        -2.5836    0.9403    0.0162 H         1 <0>         0.1400
     36 H11        -4.4208    2.5574    0.2562 H         1 <0>         0.1425
     37 H12        -1.5967    5.7239    0.7250 H         1 <0>         0.1406
     38 H13         0.2543    4.1210    0.4967 H         1 <0>         0.1386
@<TRIPOS>BOND
     1    1    6 ar
     2    1    2 ar
     3    1   26 1
     4    2    3 ar
     5    2   27 1
     6    3    4 ar
     7    3   25 1
     8    4    5 ar
     9    4   28 1
    10    5    6 ar
    11    5   29 1
    12    6    7 1
    13    7   11 2
    14    7    8 1
    15    8    9 2
    16    8   30 1
    17    9   10 1
    18    9   18 1
    19   10   11 1
    20   11   12 1
    21   12   17 ar
    22   12   13 ar
    23   13   14 ar
    24   13   31 1
    25   14   15 ar
    26   14   32 1
    27   15   16 ar
    28   16   17 ar
    29   16   33 1
    30   17   34 1
    31   18   23 ar
    32   18   19 ar
    33   19   20 ar
    34   19   35 1
    35   20   21 ar
    36   20   36 1
    37   21   22 ar
    38   21   24 1
    39   22   23 ar
    40   22   37 1
    41   23   38 1
@<TRIPOS>MOLECULE
ZINC03832165
   39    42     0     0     0
SMALL
USER_CHARGES

@<TRIPOS>ATOM
      1 C1         -1.1995   -4.5338   -0.4722 C.ar      1 <0>        -0.0407
      2 C2         -1.9931   -5.6540   -0.3518 C.ar      1 <0>        -0.1501
      3 C3         -3.1330   -5.6180    0.4371 C.ar      1 <0>         0.1266
      4 C4         -3.4787   -4.4579    1.1136 C.ar      1 <0>        -0.1524
      5 C5         -2.6902   -3.3328    1.0053 C.ar      1 <0>        -0.0621
      6 C6         -1.5398   -3.3628    0.2115 C.ar      1 <0>        -0.0727
      7 C7         -0.6924   -2.1627    0.0911 C.2       1 <0>         0.2587
      8 C8          0.6919   -2.1267    0.1960 C.2       1 <0>        -0.2618
      9 C9          1.0910   -0.7300    0.0089 C.2       1 <0>         0.5492
     10 O1          2.2277   -0.2934    0.0309 O.2       1 <0>        -0.5058
     11 N1         -0.0360   -0.0187   -0.1926 N.am      1 <0>        -0.3496
     12 N2         -1.1325   -0.8846   -0.1383 N.pl3     1 <0>        -0.4850
     13 H1         -2.0599   -0.6223   -0.2481 H         1 <0>         0.4462
     14 C10        -0.0989    1.3612   -0.4140 C.ar      1 <0>         0.1669
     15 C11        -1.3269    1.9784   -0.6142 C.ar      1 <0>        -0.1461
     16 C12        -1.3866    3.3418   -0.8262 C.ar      1 <0>        -0.0769
     17 C13        -0.2233    4.0909   -0.8518 C.ar      1 <0>        -0.0530
     18 C14         1.0020    3.4776   -0.6583 C.ar      1 <0>        -0.0732
     19 C15         1.0670    2.1155   -0.4396 C.ar      1 <0>        -0.1266
     20 Cl1        -0.3014    5.8033   -1.1264 Cl        1 <0>        -0.0603
     21 C16         1.5885   -3.2750    0.4472 C.ar      1 <0>         0.0553
     22 C17         1.5548   -3.9609    1.6677 C.ar      1 <0>        -0.1577
     23 C18         2.4050   -5.0289    1.8576 C.ar      1 <0>         0.1009
     24 N3          3.2487   -5.4001    0.9125 N.ar      1 <0>        -0.4857
     25 C19         3.3165   -4.7782   -0.2500 C.ar      1 <0>         0.1014
     26 C20         2.4992   -3.7036   -0.5266 C.ar      1 <0>        -0.1557
     27 F1         -3.9097   -6.7179    0.5475 F         1 <0>        -0.1301
     28 H2         -0.3144   -4.5616   -1.0905 H         1 <0>         0.1417
     29 H3         -1.7291   -6.5604   -0.8762 H         1 <0>         0.1468
     30 H4         -4.3678   -4.4359    1.7262 H         1 <0>         0.1459
     31 H5         -2.9606   -2.4298    1.5323 H         1 <0>         0.1385
     32 H6         -2.2346    1.3934   -0.5992 H         1 <0>         0.1303
     33 H7         -2.3416    3.8230   -0.9768 H         1 <0>         0.1434
     34 H8          1.9084    4.0645   -0.6787 H         1 <0>         0.1464
     35 H9          2.0235    1.6373   -0.2890 H         1 <0>         0.1682
     36 H10         0.8701   -3.6601    2.4469 H         1 <0>         0.1322
     37 H11         2.3834   -5.5670    2.7937 H         1 <0>         0.1560
     38 H12         4.0224   -5.1160   -0.9943 H         1 <0>         0.1569
     39 H13         2.5599   -3.1998   -1.4799 H         1 <0>         0.1338
@<TRIPOS>BOND
     1    1    6 ar
     2    1    2 ar
     3    1   28 1
     4    2    3 ar
     5    2   29 1
     6    3    4 ar
     7    3   27 1
     8    4    5 ar
     9    4   30 1
    10    5    6 ar
    11    5   31 1
    12    6    7 1
    13    7   12 1
    14    7    8 2
    15    8    9 1
    16    8   21 1
    17    9   10 2
    18    9   11 am
    19   11   12 1
    20   11   14 1
    21   12   13 1
    22   14   19 ar
    23   14   15 ar
    24   15   16 ar
    25   15   32 1
    26   16   17 ar
    27   16   33 1
    28   17   18 ar
    29   17   20 1
    30   18   19 ar
    31   18   34 1
    32   19   35 1
    33   21   26 ar
    34   21   22 ar
    35   22   23 ar
    36   22   36 1
    37   23   24 ar
    38   23   37 1
    39   24   25 ar
    40   25   26 ar
    41   25   38 1
    42   26   39 1
@<TRIPOS>MOLECULE
ZINC03832166
   38    41     0     0     0
SMALL
USER_CHARGES

@<TRIPOS>ATOM
      1 C1          4.2451   -0.3943    0.7234 C.ar      1 <0>        -0.0542
      2 C2          5.6221   -0.4570    0.7008 C.ar      1 <0>        -0.1505
      3 C3          6.3475    0.4453   -0.0615 C.ar      1 <0>         0.1168
      4 C4          5.6941    1.4128   -0.8089 C.ar      1 <0>        -0.1521
      5 C5          4.3173    1.4827   -0.7984 C.ar      1 <0>        -0.0622
      6 C6          3.5802    0.5755   -0.0322 C.ar      1 <0>        -0.0387
      7 C7          2.1075    0.6450   -0.0162 C.2       1 <0>         0.0602
      8 C8          1.2403   -0.4238   -0.1690 C.2       1 <0>        -0.1249
      9 C9         -0.0687    0.1083   -0.0855 C.2       1 <0>        -0.1629
     10 C10         0.0602    1.4464    0.1099 C.2       1 <0>         0.0364
     11 O1          1.3696    1.7587    0.1500 O.3       1 <0>        -0.1524
     12 C11        -1.0553    2.4046    0.2494 C.ar      1 <0>        -0.0153
     13 C12        -2.3764    1.9579    0.1777 C.ar      1 <0>        -0.0837
     14 C13        -3.4135    2.8569    0.3135 C.ar      1 <0>        -0.1045
     15 C14        -3.1469    4.2016    0.5099 C.ar      1 <0>        -0.0282
     16 C15        -1.8389    4.6516    0.5766 C.ar      1 <0>        -0.1055
     17 C16        -0.7930    3.7618    0.4476 C.ar      1 <0>        -0.0882
     18 Cl1        -4.4579    5.3279    0.6726 Cl        1 <0>        -0.0612
     19 C17         1.6095   -1.8427   -0.3790 C.ar      1 <0>         0.0282
     20 C18         2.4368   -2.2204   -1.4422 C.ar      1 <0>        -0.1562
     21 C19         2.7593   -3.5520   -1.5982 C.ar      1 <0>         0.1039
     22 N1          2.2908   -4.4644   -0.7677 N.ar      1 <0>        -0.4839
     23 C20         1.5038   -4.1515    0.2444 C.ar      1 <0>         0.1027
     24 C21         1.1357   -2.8430    0.4768 C.ar      1 <0>        -0.1609
     25 F1          7.6970    0.3818   -0.0758 F         1 <0>        -0.1329
     26 H1          3.6812   -1.0952    1.3210 H         1 <0>         0.1358
     27 H2          6.1370   -1.2083    1.2813 H         1 <0>         0.1439
     28 H3          6.2648    2.1134   -1.4003 H         1 <0>         0.1440
     29 H4          3.8093    2.2371   -1.3808 H         1 <0>         0.1394
     30 H5         -0.9935   -0.4442   -0.1628 H         1 <0>         0.1593
     31 H6         -2.5855    0.9102    0.0201 H         1 <0>         0.1395
     32 H7         -4.4357    2.5121    0.2621 H         1 <0>         0.1423
     33 H8         -1.6374    5.7015    0.7295 H         1 <0>         0.1404
     34 H9          0.2266    4.1140    0.4994 H         1 <0>         0.1388
     35 H10         2.8201   -1.4796   -2.1283 H         1 <0>         0.1337
     36 H11         3.4006   -3.8528   -2.4134 H         1 <0>         0.1578
     37 H12         1.1429   -4.9307    0.8993 H         1 <0>         0.1586
     38 H13         0.4916   -2.5941    1.3072 H         1 <0>         0.1369
@<TRIPOS>BOND
     1    1    6 ar
     2    1    2 ar
     3    1   26 1
     4    2    3 ar
     5    2   27 1
     6    3    4 ar
     7    3   25 1
     8    4    5 ar
     9    4   28 1
    10    5    6 ar
    11    5   29 1
    12    6    7 1
    13    7   11 1
    14    7    8 2
    15    8    9 1
    16    8   19 1
    17    9   10 2
    18    9   30 1
    19   10   11 1
    20   10   12 1
    21   12   17 ar
    22   12   13 ar
    23   13   14 ar
    24   13   31 1
    25   14   15 ar
    26   14   32 1
    27   15   16 ar
    28   15   18 1
    29   16   17 ar
    30   16   33 1
    31   17   34 1
    32   19   24 ar
    33   19   20 ar
    34   20   21 ar
    35   20   35 1
    36   21   22 ar
    37   21   36 1
    38   22   23 ar
    39   23   24 ar
    40   23   37 1
    41   24   38 1
@<TRIPOS>MOLECULE
ZINC03832170
   36    39     0     0     0
SMALL
USER_CHARGES

@<TRIPOS>ATOM
      1 C1          8.3562    1.9860    2.4870 C.ar      1 <0>        -0.1208
      2 C2          7.3172    2.8851    2.6505 C.ar      1 <0>        -0.1111
      3 C3          6.1121    2.6746    2.0131 C.ar      1 <0>        -0.1239
      4 C4          5.9421    1.5514    1.2015 C.ar      1 <0>        -0.0164
      5 C5          6.9928    0.6455    1.0451 C.ar      1 <0>        -0.1029
      6 C6          8.1945    0.8708    1.6841 C.ar      1 <0>        -0.1103
      7 C7          4.6537    1.3192    0.5159 C.2       1 <0>         0.0605
      8 C8          4.3663    0.2672   -0.2971 C.2       1 <0>        -0.1459
      9 C9          3.0361    0.4245   -0.7435 C.2       1 <0>        -0.1215
     10 C10         2.5502    1.5927   -0.1736 C.2       1 <0>         0.1226
     11 N1          3.5489    2.1334    0.5893 N.pl3     1 <0>        -0.5414
     12 H1          3.4866    2.9555    1.1002 H         1 <0>         0.4167
     13 C11         1.1983    2.1553   -0.3621 C.2       1 <0>        -0.1298
     14 C12         0.4732    2.3168   -1.6295 C.2       1 <0>        -0.1862
     15 C13        -0.7095    2.8678   -1.3123 C.2       1 <0>        -0.0289
     16 O1         -0.7680    3.0474    0.0161 O.3       1 <0>        -0.1756
     17 C14         0.3642    2.6331    0.6029 C.2       1 <0>        -0.0160
     18 C15         2.2989   -0.4851   -1.6496 C.ar      1 <0>         0.0448
     19 C16         1.0751   -1.0454   -1.2663 C.ar      1 <0>        -0.1573
     20 C17         0.4199   -1.8837   -2.1430 C.ar      1 <0>         0.0993
     21 N2          0.9367   -2.1671   -3.3240 N.ar      1 <0>        -0.4905
     22 C18         2.0903   -1.6642   -3.7223 C.ar      1 <0>         0.0988
     23 C19         2.8095   -0.8130   -2.9108 C.ar      1 <0>        -0.1651
     24 H2          9.2977    2.1557    2.9881 H         1 <0>         0.1248
     25 H3          7.4501    3.7538    3.2784 H         1 <0>         0.1251
     26 H4          5.3020    3.3773    2.1413 H         1 <0>         0.1145
     27 H5          6.8664   -0.2277    0.4223 H         1 <0>         0.1288
     28 H6          9.0094    0.1730    1.5608 H         1 <0>         0.1280
     29 H7          5.0345   -0.5411   -0.5549 H         1 <0>         0.1453
     30 H8          0.8207    2.0470   -2.6159 H         1 <0>         0.1514
     31 H9         -1.4905    3.1219   -2.0137 H         1 <0>         0.2070
     32 H10         0.5768    2.6682    1.6612 H         1 <0>         0.2038
     33 H11         0.6484   -0.8212   -0.2998 H         1 <0>         0.1296
     34 H12        -0.5269   -2.3180   -1.8578 H         1 <0>         0.1536
     35 H13         2.4762   -1.9235   -4.6972 H         1 <0>         0.1549
     36 H14         3.7525   -0.4049   -3.2433 H         1 <0>         0.1340
@<TRIPOS>BOND
     1    1    6 ar
     2    1    2 ar
     3    1   24 1
     4    2    3 ar
     5    2   25 1
     6    3    4 ar
     7    3   26 1
     8    4    5 ar
     9    4    7 1
    10    5    6 ar
    11    5   27 1
    12    6   28 1
    13    7   11 1
    14    7    8 2
    15    8    9 1
    16    8   29 1
    17    9   10 2
    18    9   18 1
    19   10   11 1
    20   10   13 1
    21   11   12 1
    22   13   17 2
    23   13   14 1
    24   14   15 2
    25   14   30 1
    26   15   16 1
    27   15   31 1
    28   16   17 1
    29   17   32 1
    30   18   23 ar
    31   18   19 ar
    32   19   20 ar
    33   19   33 1
    34   20   21 ar
    35   20   34 1
    36   21   22 ar
    37   22   23 ar
    38   22   35 1
    39   23   36 1
@<TRIPOS>MOLECULE
ZINC03832172
   43    46     0     0     0
SMALL
USER_CHARGES

@<TRIPOS>ATOM
      1 C1         -5.0873    7.6691   -2.5231 C.3       1 <0>        -0.1459
      2 S1         -3.9672    8.1523   -1.1805 S.3       1 <0>        -0.1126
      3 C2         -3.0047    6.7059   -0.8870 C.ar      1 <0>        -0.0746
      4 C3         -2.0223    6.7140    0.0985 C.ar      1 <0>        -0.0967
      5 C4         -1.2679    5.5853    0.3303 C.ar      1 <0>        -0.0888
      6 C5         -1.4904    4.4305   -0.4255 C.ar      1 <0>        -0.0345
      7 C6         -2.4745    4.4276   -1.4183 C.ar      1 <0>        -0.0660
      8 C7         -3.2285    5.5583   -1.6415 C.ar      1 <0>        -0.1298
      9 C8         -0.6844    3.2199   -0.1801 C.2       1 <0>         0.0919
     10 C9         -1.1705    1.9260   -0.0512 C.2       1 <0>        -0.1203
     11 C10        -0.0593    1.0867    0.1773 C.2       1 <0>        -0.1468
     12 C11         1.0543    1.8686    0.1730 C.2       1 <0>         0.0635
     13 N1          0.6769    3.1709   -0.0448 N.pl3     1 <0>        -0.5385
     14 H1          1.2768    3.9316   -0.0944 H         1 <0>         0.4177
     15 C12         2.4403    1.3948    0.3701 C.ar      1 <0>        -0.0175
     16 C13         3.5022    2.3005    0.3371 C.ar      1 <0>        -0.1232
     17 C14         4.7930    1.8523    0.5270 C.ar      1 <0>        -0.1111
     18 C15         5.0374    0.5068    0.7384 C.ar      1 <0>        -0.1202
     19 C16         3.9900   -0.3968    0.7670 C.ar      1 <0>        -0.1106
     20 C17         2.6939    0.0387    0.5842 C.ar      1 <0>        -0.1023
     21 C18        -2.5880    1.5062   -0.1340 C.ar      1 <0>         0.0414
     22 C19        -3.5571    2.0784    0.6978 C.ar      1 <0>        -0.1588
     23 C20        -4.8664    1.6620    0.5834 C.ar      1 <0>         0.1002
     24 N2         -5.2077    0.7305   -0.2871 N.ar      1 <0>        -0.4896
     25 C21        -4.3245    0.1615   -1.0860 C.ar      1 <0>         0.0992
     26 C22        -2.9946    0.5222   -1.0422 C.ar      1 <0>        -0.1653
     27 H2         -4.5035    7.3800   -3.3970 H         1 <0>         0.0851
     28 H3         -5.6995    6.8271   -2.2002 H         1 <0>         0.0860
     29 H4         -5.7320    8.5101   -2.7788 H         1 <0>         0.1118
     30 H5         -1.8510    7.6064    0.6820 H         1 <0>         0.1325
     31 H6         -0.5051    5.5925    1.0948 H         1 <0>         0.1273
     32 H7         -2.6457    3.5387   -2.0073 H         1 <0>         0.1274
     33 H8         -3.9918    5.5554   -2.4055 H         1 <0>         0.1275
     34 H9         -0.0873    0.0171    0.3244 H         1 <0>         0.1453
     35 H10         3.3132    3.3502    0.1674 H         1 <0>         0.1148
     36 H11         5.6150    2.5524    0.5058 H         1 <0>         0.1252
     37 H12         6.0502    0.1606    0.8820 H         1 <0>         0.1249
     38 H13         4.1875   -1.4455    0.9331 H         1 <0>         0.1279
     39 H14         1.8772   -0.6676    0.6072 H         1 <0>         0.1288
     40 H15        -3.2841    2.8377    1.4157 H         1 <0>         0.1309
     41 H16        -5.6223    2.1009    1.2178 H         1 <0>         0.1539
     42 H17        -4.6480   -0.5972   -1.7833 H         1 <0>         0.1552
     43 H18        -2.2774    0.0527   -1.6991 H         1 <0>         0.1347
@<TRIPOS>BOND
     1    1    2 1
     2    1   27 1
     3    1   28 1
     4    1   29 1
     5    2    3 1
     6    3    8 ar
     7    3    4 ar
     8    4    5 ar
     9    4   30 1
    10    5    6 ar
    11    5   31 1
    12    6    7 ar
    13    6    9 1
    14    7    8 ar
    15    7   32 1
    16    8   33 1
    17    9   13 1
    18    9   10 2
    19   10   11 1
    20   10   21 1
    21   11   12 2
    22   11   34 1
    23   12   13 1
    24   12   15 1
    25   13   14 1
    26   15   20 ar
    27   15   16 ar
    28   16   17 ar
    29   16   35 1
    30   17   18 ar
    31   17   36 1
    32   18   19 ar
    33   18   37 1
    34   19   20 ar
    35   19   38 1
    36   20   39 1
    37   21   26 ar
    38   21   22 ar
    39   22   23 ar
    40   22   40 1
    41   23   24 ar
    42   23   41 1
    43   24   25 ar
    44   25   26 ar
    45   25   42 1
    46   26   43 1
@<TRIPOS>MOLECULE
ZINC03832177
   42    45     0     0     0
SMALL
USER_CHARGES

@<TRIPOS>ATOM
      1 C1          5.0376    0.5072    0.7397 C.ar      1 <0>        -0.1181
      2 C2          3.9903   -0.3966    0.7676 C.ar      1 <0>        -0.1108
      3 C3          2.6942    0.0390    0.5843 C.ar      1 <0>        -0.1005
      4 C4          2.4406    1.3950    0.3702 C.ar      1 <0>        -0.0211
      5 C5          3.5025    2.3006    0.3375 C.ar      1 <0>        -0.1218
      6 C6          4.7932    1.8525    0.5280 C.ar      1 <0>        -0.1113
      7 C7          1.0545    1.8688    0.1730 C.2       1 <0>         0.0724
      8 C8         -0.0594    1.0867    0.1772 C.2       1 <0>        -0.1494
      9 C9         -1.1701    1.9259   -0.0513 C.2       1 <0>        -0.1074
     10 C10        -0.6839    3.2191   -0.1800 C.2       1 <0>         0.0736
     11 N1          0.6775    3.1700   -0.0445 N.pl3     1 <0>        -0.5363
     12 H1          1.2774    3.9307   -0.0938 H         1 <0>         0.4188
     13 C11        -1.4900    4.4306   -0.4256 C.ar      1 <0>         0.0091
     14 C12        -2.4739    4.4298   -1.4173 C.ar      1 <0>        -0.0915
     15 C13        -3.2271    5.5640   -1.6377 C.ar      1 <0>        -0.0635
     16 C14        -3.0029    6.7042   -0.8864 C.ar      1 <0>        -0.1775
     17 C15        -2.0261    6.7141    0.0938 C.ar      1 <0>        -0.0648
     18 C16        -1.2689    5.5855    0.3288 C.ar      1 <0>        -0.1126
     19 C17        -3.8261    7.9414   -1.1371 C.3       1 <0>         0.5076
     20 F1         -3.1949    8.7339   -2.1018 F         1 <0>        -0.1753
     21 F2         -5.0955    7.5720   -1.5949 F         1 <0>        -0.1748
     22 F3         -3.9522    8.6666    0.0526 F         1 <0>        -0.1756
     23 C18        -2.5880    1.5063   -0.1344 C.ar      1 <0>         0.0360
     24 C19        -3.5569    2.0785    0.6972 C.ar      1 <0>        -0.1603
     25 C20        -4.8665    1.6621    0.5829 C.ar      1 <0>         0.1020
     26 N2         -5.2079    0.7308   -0.2876 N.ar      1 <0>        -0.4877
     27 C21        -4.3248    0.1621   -1.0867 C.ar      1 <0>         0.1009
     28 C22        -2.9946    0.5226   -1.0426 C.ar      1 <0>        -0.1635
     29 H2          6.0504    0.1610    0.8842 H         1 <0>         0.1255
     30 H3          4.1878   -1.4453    0.9337 H         1 <0>         0.1287
     31 H4          1.8776   -0.6674    0.6067 H         1 <0>         0.1293
     32 H5          3.3134    3.3503    0.1679 H         1 <0>         0.1150
     33 H6          5.6152    2.5527    0.5073 H         1 <0>         0.1258
     34 H7         -0.0874    0.0171    0.3241 H         1 <0>         0.1473
     35 H8         -2.6472    3.5418   -2.0072 H         1 <0>         0.1372
     36 H9         -3.9909    5.5635   -2.4012 H         1 <0>         0.1413
     37 H10        -1.8560    7.6078    0.6759 H         1 <0>         0.1408
     38 H11        -0.5066    5.5947    1.0938 H         1 <0>         0.1345
     39 H12        -3.2838    2.8376    1.4152 H         1 <0>         0.1309
     40 H13        -5.6222    2.1005    1.2178 H         1 <0>         0.1550
     41 H14        -4.6483   -0.5963   -1.7843 H         1 <0>         0.1562
     42 H15        -2.2774    0.0531   -1.6994 H         1 <0>         0.1357
@<TRIPOS>BOND
     1    1    6 ar
     2    1    2 ar
     3    1   29 1
     4    2    3 ar
     5    2   30 1
     6    3    4 ar
     7    3   31 1
     8    4    5 ar
     9    4    7 1
    10    5    6 ar
    11    5   32 1
    12    6   33 1
    13    7   11 1
    14    7    8 2
    15    8    9 1
    16    8   34 1
    17    9   10 2
    18    9   23 1
    19   10   11 1
    20   10   13 1
    21   11   12 1
    22   13   18 ar
    23   13   14 ar
    24   14   15 ar
    25   14   35 1
    26   15   16 ar
    27   15   36 1
    28   16   17 ar
    29   16   19 1
    30   17   18 ar
    31   17   37 1
    32   18   38 1
    33   19   20 1
    34   19   21 1
    35   19   22 1
    36   23   28 ar
    37   23   24 ar
    38   24   25 ar
    39   24   39 1
    40   25   26 ar
    41   25   40 1
    42   26   27 ar
    43   27   28 ar
    44   27   41 1
    45   28   42 1
@<TRIPOS>MOLECULE
ZINC03833969
   38    41     0     0     0
SMALL
USER_CHARGES

@<TRIPOS>ATOM
      1 C1          0.0769    6.8359   -3.6182 C.ar      1 <0>        -0.1009
      2 C2          0.4692    7.5417   -2.4947 C.ar      1 <0>        -0.1149
      3 C3          1.3169    6.9620   -1.5734 C.ar      1 <0>        -0.1015
      4 C4          1.7783    5.6608   -1.7765 C.ar      1 <0>        -0.0464
      5 C5          1.3832    4.9563   -2.9143 C.ar      1 <0>        -0.0911
      6 C6          0.5306    5.5453   -3.8252 C.ar      1 <0>        -0.1138
      7 C7          2.6878    5.0329   -0.7923 C.2       1 <0>        -0.0421
      8 C8          4.0564    5.4546   -0.4638 C.ar      1 <0>        -0.1398
      9 C9          4.8878    6.4836   -0.9169 C.ar      1 <0>         0.1064
     10 C10         6.1425    6.5892   -0.3785 C.ar      1 <0>        -0.2294
     11 C11         6.5496    5.6771    0.5954 C.ar      1 <0>         0.5082
     12 C12         4.5229    4.5658    0.5202 C.ar      1 <0>         0.3070
     13 N1          3.5163    3.6671    0.7840 N.pl3     1 <0>        -0.5502
     14 H1          3.5728    2.9448    1.4290 H         1 <0>         0.4340
     15 C13         2.4188    3.9364   -0.0009 C.2       1 <0>         0.1407
     16 C14         1.1532    3.1767    0.0076 C.ar      1 <0>        -0.0455
     17 C15         1.1733    1.7798    0.0004 C.ar      1 <0>        -0.0977
     18 C16        -0.0126    1.0758    0.0080 C.ar      1 <0>        -0.1007
     19 C17        -1.2212    1.7496    0.0173 C.ar      1 <0>        -0.0862
     20 C18        -1.2493    3.1339    0.0299 C.ar      1 <0>        -0.0323
     21 C19        -0.0695    3.8511    0.0225 C.ar      1 <0>        -0.0686
     22 Cl1        -2.7709    3.9694    0.0483 Cl        1 <0>        -0.0470
     23 N2          7.8233    5.7871    1.1404 N.pl3     1 <0>        -0.8173
     24 H2         -0.5866    7.2943   -4.3367 H         1 <0>         0.1285
     25 H3          0.1113    8.5486   -2.3387 H         1 <0>         0.1298
     26 H4          1.6223    7.5139   -0.6968 H         1 <0>         0.1246
     27 H5          1.7408    3.9508   -3.0796 H         1 <0>         0.1228
     28 H6          0.2204    4.9995   -4.7040 H         1 <0>         0.1291
     29 H7          4.5492    7.1771   -1.6725 H         1 <0>         0.1752
     30 H8          6.8111    7.3719   -0.7050 H         1 <0>         0.1864
     31 H9          2.1157    1.2523   -0.0107 H         1 <0>         0.1295
     32 H10         0.0021   -0.0041    0.0020 H         1 <0>         0.1432
     33 H11        -2.1468    1.1931    0.0191 H         1 <0>         0.1438
     34 H12        -0.0923    4.9309    0.0285 H         1 <0>         0.1417
     35 H13         8.1167    5.1585    1.8184 H         1 <0>         0.4208
     36 H14         8.4189    6.4924    0.8427 H         1 <0>         0.4415
     37 N3          5.7750    4.6612    1.0659 N.ar      1 <0>        -0.5468
     38 H15         6.1087    4.0080    1.7845 H         1 <0>         0.4591
@<TRIPOS>BOND
     1    1    6 ar
     2    1    2 ar
     3    1   24 1
     4    2    3 ar
     5    2   25 1
     6    3    4 ar
     7    3   26 1
     8    4    5 ar
     9    4    7 1
    10    5    6 ar
    11    5   27 1
    12    6   28 1
    13    7   15 2
    14    7    8 1
    15    8   12 ar
    16    8    9 ar
    17    9   10 ar
    18    9   29 1
    19   10   11 ar
    20   10   30 1
    21   11   23 1
    22   11   37 ar
    23   12   13 1
    24   12   37 ar
    25   13   14 1
    26   13   15 1
    27   15   16 1
    28   16   21 ar
    29   16   17 ar
    30   17   18 ar
    31   17   31 1
    32   18   19 ar
    33   18   32 1
    34   19   20 ar
    35   19   33 1
    36   20   21 ar
    37   20   22 1
    38   21   34 1
    39   23   35 1
    40   23   36 1
    41   37   38 1
@<TRIPOS>MOLECULE
ZINC03833970
   47    49     0     0     0
SMALL
USER_CHARGES

@<TRIPOS>ATOM
      1 C1          2.8099   -7.7160   -0.9668 C.3       1 <0>        -0.1380
      2 C2          3.3579   -7.4135    0.4293 C.3       1 <0>         0.0125
      3 C3          4.1943   -8.5983    0.9166 C.3       1 <0>        -0.1382
      4 C4          2.1940   -7.1796    1.3944 C.3       1 <0>        -0.1385
      5 C5          4.2203   -6.1789    0.3739 C.2       1 <0>         0.1111
      6 C6          3.7584   -4.8641    0.2653 C.2       1 <0>        -0.2547
      7 C7          4.8421   -4.0407    0.2466 C.2       1 <0>         0.3202
      8 N1          5.9513   -4.8242    0.3356 N.pl3     1 <0>        -0.3428
      9 N2          5.5280   -6.1568    0.4192 N.2       1 <0>        -0.2714
     10 C8          7.2797   -4.3772    0.3452 C.ar      1 <0>         0.1578
     11 C9          7.6489   -3.2766   -0.4164 C.ar      1 <0>        -0.1532
     12 C10         8.9575   -2.8351   -0.4003 C.ar      1 <0>        -0.0910
     13 C11         9.9020   -3.4952    0.3640 C.ar      1 <0>        -0.1227
     14 C12         9.5385   -4.5948    1.1195 C.ar      1 <0>        -0.0927
     15 C13         8.2303   -5.0377    1.1120 C.ar      1 <0>        -0.1093
     16 N3          4.8201   -2.6498    0.1481 N.am      1 <0>        -0.6555
     17 C14         3.6431   -1.9990    0.0604 C.2       1 <0>         0.7181
     18 O1          2.6005   -2.6246    0.0672 O.2       1 <0>        -0.5318
     19 N4          3.6217   -0.6548   -0.0348 N.am      1 <0>        -0.6713
     20 C15         2.4008    0.0296   -0.0071 C.ar      1 <0>         0.1900
     21 C16         1.2963   -0.5427    0.6099 C.ar      1 <0>        -0.1155
     22 C17         0.0928    0.1346    0.6364 C.ar      1 <0>        -0.0760
     23 C18        -0.0139    1.3822    0.0498 C.ar      1 <0>        -0.1162
     24 C19         1.0840    1.9565   -0.5662 C.ar      1 <0>        -0.0088
     25 C20         2.2919    1.2829   -0.5965 C.ar      1 <0>        -0.0691
     26 Cl1         3.6697    2.0029   -1.3692 Cl        1 <0>        -0.0438
     27 Cl2         0.9455    3.5230   -1.3014 Cl        1 <0>        -0.0405
     28 H1          3.6392   -7.8826   -1.6543 H         1 <0>         0.0564
     29 H2          2.1862   -8.6089   -0.9267 H         1 <0>         0.0660
     30 H3          2.2141   -6.8718   -1.3140 H         1 <0>         0.0615
     31 H4          4.5847   -8.3829    1.9113 H         1 <0>         0.0568
     32 H5          3.5705   -9.4913    0.9568 H         1 <0>         0.0608
     33 H6          5.0235   -8.7650    0.2291 H         1 <0>         0.0611
     34 H7          1.5981   -6.3355    1.0472 H         1 <0>         0.0635
     35 H8          1.5702   -8.0726    1.4345 H         1 <0>         0.0651
     36 H9          2.5843   -6.9641    2.3890 H         1 <0>         0.0570
     37 H10         2.7249   -4.5561    0.2073 H         1 <0>         0.1808
     38 H11         6.9126   -2.7636   -1.0173 H         1 <0>         0.1236
     39 H12         9.2442   -1.9761   -0.9888 H         1 <0>         0.1349
     40 H13        10.9257   -3.1510    0.3711 H         1 <0>         0.1321
     41 H14        10.2784   -5.1081    1.7157 H         1 <0>         0.1350
     42 H15         7.9470   -5.8966    1.7023 H         1 <0>         0.1363
     43 H16         5.6518   -2.1507    0.1426 H         1 <0>         0.4109
     44 H17         4.4524   -0.1615   -0.1225 H         1 <0>         0.4132
     45 H18         1.3782   -1.5170    1.0686 H         1 <0>         0.1643
     46 H19        -0.7660   -0.3108    1.1164 H         1 <0>         0.1462
     47 H20        -0.9574    1.9075    0.0685 H         1 <0>         0.1460
@<TRIPOS>BOND
     1    1    2 1
     2    1   28 1
     3    1   29 1
     4    1   30 1
     5    2    3 1
     6    2    4 1
     7    2    5 1
     8    3   31 1
     9    3   32 1
    10    3   33 1
    11    4   34 1
    12    4   35 1
    13    4   36 1
    14    5    9 2
    15    5    6 1
    16    6    7 2
    17    6   37 1
    18    7    8 1
    19    7   16 1
    20    8    9 1
    21    8   10 1
    22   10   15 ar
    23   10   11 ar
    24   11   12 ar
    25   11   38 1
    26   12   13 ar
    27   12   39 1
    28   13   14 ar
    29   13   40 1
    30   14   15 ar
    31   14   41 1
    32   15   42 1
    33   16   17 am
    34   16   43 1
    35   17   18 2
    36   17   19 am
    37   19   20 1
    38   19   44 1
    39   20   25 ar
    40   20   21 ar
    41   21   22 ar
    42   21   45 1
    43   22   23 ar
    44   22   46 1
    45   23   24 ar
    46   23   47 1
    47   24   25 ar
    48   24   27 1
    49   25   26 1
@<TRIPOS>MOLECULE
ZINC03833971
   38    41     0     0     0
SMALL
USER_CHARGES

@<TRIPOS>ATOM
      1 C1          4.8672    3.0840    3.6285 C.ar      1 <0>        -0.1006
      2 C2          5.2647    3.7856    2.5042 C.ar      1 <0>        -0.1154
      3 C3          4.3280    4.2049    1.5822 C.ar      1 <0>        -0.1008
      4 C4          2.9772    3.9195    1.7852 C.ar      1 <0>        -0.0484
      5 C5          2.5824    3.2156    2.9236 C.ar      1 <0>        -0.0915
      6 C6          3.5296    2.7974    3.8354 C.ar      1 <0>        -0.1140
      7 C7          1.9671    4.3666    0.8005 C.2       1 <0>        -0.0364
      8 C8          1.6121    5.7540    0.4711 C.ar      1 <0>        -0.1406
      9 C9          2.0556    7.0005    0.9234 C.ar      1 <0>         0.1070
     10 C10         1.4908    8.1254    0.3839 C.ar      1 <0>        -0.2290
     11 C11         0.5002    7.9958   -0.5896 C.ar      1 <0>         0.5093
     12 C12         0.6106    5.6871   -0.5128 C.ar      1 <0>         0.3095
     13 N1          0.3697    4.3589   -0.7758 N.pl3     1 <0>        -0.5507
     14 H1         -0.2756    4.0296   -1.4208 H         1 <0>         0.4347
     15 C13         1.1724    3.5642    0.0095 C.2       1 <0>         0.1372
     16 C14         1.1852    2.0882    0.0020 C.ar      1 <0>        -0.0387
     17 C15         2.3996    1.3978   -0.0138 C.ar      1 <0>        -0.0561
     18 C16         2.4067    0.0189   -0.0208 C.ar      1 <0>        -0.1185
     19 C17         1.2123   -0.6834   -0.0132 C.ar      1 <0>         0.0960
     20 C18         0.0021   -0.0041    0.0020 C.ar      1 <0>         0.0747
     21 C19        -0.0167    1.3768    0.0096 C.ar      1 <0>        -0.1100
     22 F1         -1.1591   -0.6946    0.0089 F         1 <0>        -0.1182
     23 F2          1.2258   -2.0343   -0.0210 F         1 <0>        -0.1150
     24 N2         -0.0715    9.1392   -1.1350 N.pl3     1 <0>        -0.8164
     25 H2          5.6044    2.7583    4.3475 H         1 <0>         0.1289
     26 H3          6.3104    4.0059    2.3482 H         1 <0>         0.1303
     27 H4          4.6395    4.7525    0.7050 H         1 <0>         0.1255
     28 H5          1.5381    2.9952    3.0885 H         1 <0>         0.1237
     29 H6          3.2257    2.2493    4.7150 H         1 <0>         0.1296
     30 H7          2.8238    7.0744    1.6789 H         1 <0>         0.1757
     31 H8          1.8092    9.1046    0.7098 H         1 <0>         0.1867
     32 H9          3.3317    1.9433   -0.0201 H         1 <0>         0.1497
     33 H10         3.3454   -0.5150   -0.0327 H         1 <0>         0.1597
     34 H11        -0.9585    1.9053    0.0169 H         1 <0>         0.1467
     35 H12        -0.7610    9.0608   -1.8128 H         1 <0>         0.4212
     36 H13         0.2190   10.0157   -0.8379 H         1 <0>         0.4418
     37 N3          0.0382    6.8044   -1.0593 N.ar      1 <0>        -0.5472
     38 H14        -0.6932    6.7474   -1.7777 H         1 <0>         0.4596
@<TRIPOS>BOND
     1    1    6 ar
     2    1    2 ar
     3    1   25 1
     4    2    3 ar
     5    2   26 1
     6    3    4 ar
     7    3   27 1
     8    4    5 ar
     9    4    7 1
    10    5    6 ar
    11    5   28 1
    12    6   29 1
    13    7   15 2
    14    7    8 1
    15    8   12 ar
    16    8    9 ar
    17    9   10 ar
    18    9   30 1
    19   10   11 ar
    20   10   31 1
    21   11   24 1
    22   11   37 ar
    23   12   13 1
    24   12   37 ar
    25   13   14 1
    26   13   15 1
    27   15   16 1
    28   16   21 ar
    29   16   17 ar
    30   17   18 ar
    31   17   32 1
    32   18   19 ar
    33   18   33 1
    34   19   20 ar
    35   19   23 1
    36   20   21 ar
    37   20   22 1
    38   21   34 1
    39   24   35 1
    40   24   36 1
    41   37   38 1
@<TRIPOS>MOLECULE
ZINC03833972
   47    49     0     0     0
SMALL
USER_CHARGES

@<TRIPOS>ATOM
      1 C1          2.8089   -7.7161   -0.9677 C.3       1 <0>        -0.1378
      2 C2          3.3579   -7.4135    0.4280 C.3       1 <0>         0.0119
      3 C3          4.1946   -8.5984    0.9148 C.3       1 <0>        -0.1389
      4 C4          2.1947   -7.1795    1.3939 C.3       1 <0>        -0.1391
      5 C5          4.2203   -6.1790    0.3718 C.2       1 <0>         0.1154
      6 C6          3.7582   -4.8637    0.2694 C.2       1 <0>        -0.2518
      7 C7          4.8422   -4.0408    0.2443 C.2       1 <0>         0.3233
      8 N1          5.9512   -4.8239    0.3383 N.pl3     1 <0>        -0.3468
      9 N2          5.5281   -6.1570    0.4166 N.2       1 <0>        -0.2708
     10 C8          7.2793   -4.3765    0.3545 C.ar      1 <0>         0.1923
     11 C9          7.6516   -3.2752   -0.4052 C.ar      1 <0>        -0.1659
     12 C10         8.9597   -2.8327   -0.3843 C.ar      1 <0>        -0.0587
     13 C11         9.9020   -3.4908    0.3842 C.ar      1 <0>        -0.1587
     14 C12         9.5361   -4.5926    1.1391 C.ar      1 <0>         0.1306
     15 C13         8.2258   -5.0369    1.1254 C.ar      1 <0>        -0.1491
     16 F1         10.4589   -5.2341    1.8889 F         1 <0>        -0.1281
     17 N3          4.8201   -2.6498    0.1462 N.am      1 <0>        -0.6563
     18 C14         3.6431   -1.9990    0.0590 C.2       1 <0>         0.7190
     19 O1          2.6005   -2.6246    0.0659 O.2       1 <0>        -0.5332
     20 N4          3.6217   -0.6548   -0.0357 N.am      1 <0>        -0.6735
     21 C15         2.3996    0.0279   -0.0317 C.ar      1 <0>         0.1833
     22 C16         1.2828   -0.5412   -0.6295 C.ar      1 <0>        -0.1033
     23 C17         0.0779    0.1340   -0.6239 C.ar      1 <0>        -0.0802
     24 C18        -0.0183    1.3761   -0.0239 C.ar      1 <0>        -0.1105
     25 C19         1.0917    1.9471    0.5731 C.ar      1 <0>        -0.0131
     26 C20         2.3014    1.2758    0.5707 C.ar      1 <0>        -0.0620
     27 Cl1         3.6942    1.9915    1.3200 Cl        1 <0>        -0.0425
     28 Cl2         0.9665    3.5067    1.3253 Cl        1 <0>        -0.0401
     29 H1          3.6376   -7.8828   -1.6558 H         1 <0>         0.0567
     30 H2          2.1851   -8.6090   -0.9271 H         1 <0>         0.0665
     31 H3          2.2129   -6.8720   -1.3145 H         1 <0>         0.0617
     32 H4          4.5857   -8.3828    1.9091 H         1 <0>         0.0571
     33 H5          3.5708   -9.4913    0.9555 H         1 <0>         0.0615
     34 H6          5.0233   -8.7651    0.2267 H         1 <0>         0.0615
     35 H7          1.5986   -6.3354    1.0471 H         1 <0>         0.0639
     36 H8          1.5709   -8.0724    1.4346 H         1 <0>         0.0658
     37 H9          2.5858   -6.9639    2.3882 H         1 <0>         0.0573
     38 H10         2.7246   -4.5553    0.2168 H         1 <0>         0.1826
     39 H11         6.9175   -2.7626   -1.0092 H         1 <0>         0.1316
     40 H12         9.2478   -1.9738   -0.9724 H         1 <0>         0.1472
     41 H13        10.9251   -3.1452    0.3955 H         1 <0>         0.1458
     42 H14         7.9401   -5.8965    1.7134 H         1 <0>         0.1494
     43 H15         5.6518   -2.1507    0.1408 H         1 <0>         0.4109
     44 H16         4.4532   -0.1603   -0.1067 H         1 <0>         0.4132
     45 H17         1.3565   -1.5111   -1.0988 H         1 <0>         0.1589
     46 H18        -0.7905   -0.3091   -1.0886 H         1 <0>         0.1465
     47 H19        -0.9608    1.9036   -0.0251 H         1 <0>         0.1465
@<TRIPOS>BOND
     1    1    2 1
     2    1   29 1
     3    1   30 1
     4    1   31 1
     5    2    3 1
     6    2    4 1
     7    2    5 1
     8    3   32 1
     9    3   33 1
    10    3   34 1
    11    4   35 1
    12    4   36 1
    13    4   37 1
    14    5    9 2
    15    5    6 1
    16    6    7 2
    17    6   38 1
    18    7    8 1
    19    7   17 1
    20    8    9 1
    21    8   10 1
    22   10   15 ar
    23   10   11 ar
    24   11   12 ar
    25   11   39 1
    26   12   13 ar
    27   12   40 1
    28   13   14 ar
    29   13   41 1
    30   14   15 ar
    31   14   16 1
    32   15   42 1
    33   17   18 am
    34   17   43 1
    35   18   19 2
    36   18   20 am
    37   20   21 1
    38   20   44 1
    39   21   26 ar
    40   21   22 ar
    41   22   23 ar
    42   22   45 1
    43   23   24 ar
    44   23   46 1
    45   24   25 ar
    46   24   47 1
    47   25   26 ar
    48   25   28 1
    49   26   27 1
@<TRIPOS>MOLECULE
ZINC03833973
   51    53     0     0     0
SMALL
USER_CHARGES

@<TRIPOS>ATOM
      1 C1          0.4430    9.1556    2.1108 C.3       1 <0>        -0.1380
      2 C2          1.2326    8.5492    0.9490 C.3       1 <0>         0.0124
      3 C3          2.6283    8.1515    1.4335 C.3       1 <0>        -0.1386
      4 C4          1.3574    9.5793   -0.1754 C.3       1 <0>        -0.1385
      5 C5          0.5127    7.3292    0.4350 C.2       1 <0>         0.1124
      6 C6         -0.6451    7.3334   -0.3481 C.2       1 <0>        -0.2538
      7 C7         -0.9776    6.0396   -0.6095 C.2       1 <0>         0.3232
      8 N1         -0.0549    5.2495    0.0040 N.pl3     1 <0>        -0.3440
      9 N2          0.8663    6.0870    0.6461 N.2       1 <0>        -0.2694
     10 C8         -0.0277    3.8483   -0.0093 C.ar      1 <0>         0.2003
     11 C9         -1.2162    3.1296    0.0032 C.ar      1 <0>        -0.1915
     12 C10        -1.1896    1.7487   -0.0152 C.ar      1 <0>        -0.0486
     13 C11         0.0190    1.0785   -0.0345 C.ar      1 <0>        -0.2137
     14 C12         1.2094    1.7913   -0.0471 C.ar      1 <0>         0.1562
     15 C13         1.1864    3.1774   -0.0345 C.ar      1 <0>        -0.1453
     16 O1          2.3971    1.1312   -0.0713 O.3       1 <0>        -0.3111
     17 C14         2.3455   -0.2968   -0.0826 C.3       1 <0>         0.0250
     18 N3         -2.0661    5.6036   -1.3643 N.am      1 <0>        -0.6556
     19 C15        -2.9051    6.5014   -1.9180 C.2       1 <0>         0.7188
     20 O2         -2.7129    7.6915   -1.7594 O.2       1 <0>        -0.5340
     21 N4         -3.9571    6.0800   -2.6475 N.am      1 <0>        -0.6740
     22 C16        -4.8811    7.0072   -3.1438 C.ar      1 <0>         0.1844
     23 C17        -4.4555    8.2662   -3.5465 C.ar      1 <0>        -0.1036
     24 C18        -5.3688    9.1792   -4.0363 C.ar      1 <0>        -0.0800
     25 C19        -6.7068    8.8418   -4.1263 C.ar      1 <0>        -0.1111
     26 C20        -7.1355    7.5885   -3.7262 C.ar      1 <0>        -0.0129
     27 C21        -6.2248    6.6678   -3.2397 C.ar      1 <0>        -0.0624
     28 Cl1        -6.7610    5.0928   -2.7442 Cl        1 <0>        -0.0431
     29 Cl2        -8.8162    7.1689   -3.8409 Cl        1 <0>        -0.0407
     30 H1          0.3541    8.4218    2.9119 H         1 <0>         0.0566
     31 H2          0.9637   10.0380    2.4827 H         1 <0>         0.0659
     32 H3         -0.5513    9.4390    1.7657 H         1 <0>         0.0615
     33 H4          3.1908    7.7195    0.6058 H         1 <0>         0.0572
     34 H5          3.1490    9.0339    1.8053 H         1 <0>         0.0608
     35 H6          2.5394    7.4177    2.2346 H         1 <0>         0.0614
     36 H7          0.3631    9.8627   -0.5205 H         1 <0>         0.0636
     37 H8          1.8781   10.4618    0.1964 H         1 <0>         0.0651
     38 H9          1.9199    9.1474   -1.0031 H         1 <0>         0.0572
     39 H10        -1.1787    8.2083   -0.6893 H         1 <0>         0.1815
     40 H11        -2.1619    3.6509    0.0232 H         1 <0>         0.1264
     41 H12        -2.1148    1.1916   -0.0099 H         1 <0>         0.1386
     42 H13         0.0368   -0.0013   -0.0443 H         1 <0>         0.1372
     43 H14         2.1119    3.7340   -0.0446 H         1 <0>         0.1447
     44 H15         3.3592   -0.6969   -0.1019 H         1 <0>         0.1049
     45 H16         1.8328   -0.6490    0.8125 H         1 <0>         0.0593
     46 H17         1.8050   -0.6338   -0.9672 H         1 <0>         0.0588
     47 H18        -2.2195    4.6542   -1.4908 H         1 <0>         0.4115
     48 H19        -4.0741    5.1343   -2.8286 H         1 <0>         0.4131
     49 H20        -3.4109    8.5314   -3.4765 H         1 <0>         0.1590
     50 H21        -5.0375   10.1584   -4.3491 H         1 <0>         0.1464
     51 H22        -7.4186    9.5580   -4.5094 H         1 <0>         0.1464
@<TRIPOS>BOND
     1    1    2 1
     2    1   30 1
     3    1   31 1
     4    1   32 1
     5    2    3 1
     6    2    4 1
     7    2    5 1
     8    3   33 1
     9    3   34 1
    10    3   35 1
    11    4   36 1
    12    4   37 1
    13    4   38 1
    14    5    9 2
    15    5    6 1
    16    6    7 2
    17    6   39 1
    18    7    8 1
    19    7   18 1
    20    8    9 1
    21    8   10 1
    22   10   15 ar
    23   10   11 ar
    24   11   12 ar
    25   11   40 1
    26   12   13 ar
    27   12   41 1
    28   13   14 ar
    29   13   42 1
    30   14   15 ar
    31   14   16 1
    32   15   43 1
    33   16   17 1
    34   17   44 1
    35   17   45 1
    36   17   46 1
    37   18   19 am
    38   18   47 1
    39   19   20 2
    40   19   21 am
    41   21   22 1
    42   21   48 1
    43   22   27 ar
    44   22   23 ar
    45   23   24 ar
    46   23   49 1
    47   24   25 ar
    48   24   50 1
    49   25   26 ar
    50   25   51 1
    51   26   27 ar
    52   26   29 1
    53   27   28 1
@<TRIPOS>MOLECULE
ZINC03833974
   36    37     0     0     0
SMALL
USER_CHARGES

@<TRIPOS>ATOM
      1 C1         -3.1239    7.0191    1.5012 C.3       1 <0>        -0.1386
      2 C2         -2.5573    6.7891    0.0987 C.3       1 <0>         0.0090
      3 C3         -1.6313    7.9487   -0.2738 C.3       1 <0>        -0.1410
      4 C4         -3.7060    6.7099   -0.9088 C.3       1 <0>        -0.1391
      5 C5         -1.7798    5.4983    0.0765 C.2       1 <0>         0.0556
      6 C6         -2.3125    4.1935    0.0695 C.2       1 <0>        -0.2634
      7 C7         -1.2097    3.3886    0.0492 C.2       1 <0>         0.2246
      8 O1         -0.1466    4.2083    0.0514 O.3       1 <0>         0.1165
      9 N1         -0.4829    5.3696    0.0608 N.2       1 <0>        -0.3586
     10 N2         -1.1915    2.0018    0.0352 N.am      1 <0>        -0.6313
     11 C8         -0.0156    1.3435    0.0156 C.2       1 <0>         0.7036
     12 O2          1.0291    1.9653    0.0051 O.2       1 <0>        -0.5273
     13 N3          0.0021   -0.0041    0.0020 N.am      1 <0>        -0.6720
     14 C9          1.2181   -0.6869   -0.1189 C.ar      1 <0>         0.1818
     15 C10         2.3674   -0.1698    0.4642 C.ar      1 <0>        -0.1036
     16 C11         3.5661   -0.8453    0.3435 C.ar      1 <0>        -0.0799
     17 C12         3.6238   -2.0360   -0.3572 C.ar      1 <0>        -0.1102
     18 C13         2.4813   -2.5549   -0.9403 C.ar      1 <0>        -0.0133
     19 C14         1.2764   -1.8862   -0.8177 C.ar      1 <0>        -0.0616
     20 Cl1        -0.1589   -2.5410   -1.5420 Cl        1 <0>        -0.0422
     21 Cl2         2.5582   -4.0501   -1.8191 Cl        1 <0>        -0.0401
     22 H1         -2.3055    7.0755    2.2189 H         1 <0>         0.0581
     23 H2         -3.6862    7.9527    1.5172 H         1 <0>         0.0679
     24 H3         -3.7836    6.1930    1.7665 H         1 <0>         0.0602
     25 H4         -1.2276    7.7848   -1.2729 H         1 <0>         0.0583
     26 H5         -2.1936    8.8823   -0.2577 H         1 <0>         0.0641
     27 H6         -0.8129    8.0051    0.4440 H         1 <0>         0.0622
     28 H7         -4.3658    5.8838   -0.6434 H         1 <0>         0.0606
     29 H8         -4.2684    7.6435   -0.8927 H         1 <0>         0.0675
     30 H9         -3.3024    6.5461   -1.9079 H         1 <0>         0.0588
     31 H10        -3.3514    3.8987    0.0786 H         1 <0>         0.1752
     32 H11        -2.0250    1.5058    0.0396 H         1 <0>         0.4315
     33 H12        -0.8278   -0.5008    0.0760 H         1 <0>         0.4148
     34 H13         2.3240    0.7602    1.0115 H         1 <0>         0.1583
     35 H14         4.4599   -0.4426    0.7968 H         1 <0>         0.1467
     36 H15         4.5626   -2.5618   -0.4498 H         1 <0>         0.1468
@<TRIPOS>BOND
     1    1    2 1
     2    1   22 1
     3    1   23 1
     4    1   24 1
     5    2    3 1
     6    2    4 1
     7    2    5 1
     8    3   25 1
     9    3   26 1
    10    3   27 1
    11    4   28 1
    12    4   29 1
    13    4   30 1
    14    5    9 2
    15    5    6 1
    16    6    7 2
    17    6   31 1
    18    7    8 1
    19    7   10 1
    20    8    9 1
    21   10   11 am
    22   10   32 1
    23   11   12 2
    24   11   13 am
    25   13   14 1
    26   13   33 1
    27   14   19 ar
    28   14   15 ar
    29   15   16 ar
    30   15   34 1
    31   16   17 ar
    32   16   35 1
    33   17   18 ar
    34   17   36 1
    35   18   19 ar
    36   18   21 1
    37   19   20 1
@<TRIPOS>MOLECULE
ZINC03833975
   38    41     0     0     0
SMALL
USER_CHARGES

@<TRIPOS>ATOM
      1 C1          3.6147   -5.3464   -0.6796 C.ar      1 <0>        -0.1020
      2 C2          3.6153   -4.6324    0.5055 C.ar      1 <0>        -0.1158
      3 C3          2.7364   -3.5838    0.6830 C.ar      1 <0>        -0.1019
      4 C4          1.8456   -3.2440   -0.3359 C.ar      1 <0>        -0.0445
      5 C5          1.8465   -3.9715   -1.5267 C.ar      1 <0>        -0.0912
      6 C6          2.7340   -5.0145   -1.6937 C.ar      1 <0>        -0.1145
      7 C7          0.8998   -2.1209   -0.1521 C.2       1 <0>        -0.0460
      8 C8          1.2384   -0.6970   -0.0199 C.ar      1 <0>        -0.1391
      9 C9          2.4409    0.0166   -0.0214 C.ar      1 <0>         0.1059
     10 C10         2.3887    1.3767    0.1295 C.ar      1 <0>        -0.2294
     11 C11         1.1513    2.0030    0.2794 C.ar      1 <0>         0.5076
     12 C12         0.0220   -0.0099    0.1344 C.ar      1 <0>         0.3058
     13 N1         -0.9913   -0.9391    0.1001 N.pl3     1 <0>        -0.5511
     14 H1         -1.9354   -0.7332    0.1846 H         1 <0>         0.4338
     15 C13        -0.4742   -2.2024   -0.0708 C.2       1 <0>         0.1448
     16 C14        -1.2641   -3.4465   -0.1534 C.ar      1 <0>        -0.0728
     17 C15        -0.8834   -4.5692    0.5856 C.ar      1 <0>        -0.0441
     18 C16        -1.6283   -5.7270    0.5084 C.ar      1 <0>        -0.1492
     19 C17        -2.7461   -5.7819   -0.3093 C.ar      1 <0>         0.1294
     20 C18        -3.1257   -4.6728   -1.0489 C.ar      1 <0>        -0.1516
     21 C19        -2.3920   -3.5077   -0.9754 C.ar      1 <0>        -0.0690
     22 F1         -3.4689   -6.9208   -0.3853 F         1 <0>        -0.1269
     23 N2          1.1016    3.3835    0.4323 N.pl3     1 <0>        -0.8176
     24 H2          4.3050   -6.1661   -0.8137 H         1 <0>         0.1284
     25 H3          4.3050   -4.8966    1.2935 H         1 <0>         0.1297
     26 H4          2.7381   -3.0270    1.6084 H         1 <0>         0.1247
     27 H5          1.1567   -3.7161   -2.3175 H         1 <0>         0.1232
     28 H6          2.7385   -5.5757   -2.6164 H         1 <0>         0.1290
     29 H7          3.3865   -0.4919   -0.1383 H         1 <0>         0.1749
     30 H8          3.2980    1.9595    0.1335 H         1 <0>         0.1861
     31 H9         -0.0100   -4.5290    1.2195 H         1 <0>         0.1412
     32 H10        -1.3375   -6.5942    1.0826 H         1 <0>         0.1480
     33 H11        -3.9977   -4.7215   -1.6843 H         1 <0>         0.1463
     34 H12        -2.6885   -2.6443   -1.5524 H         1 <0>         0.1335
     35 H13         0.2465    3.8294    0.5364 H         1 <0>         0.4207
     36 H14         1.9220    3.9010    0.4349 H         1 <0>         0.4414
     37 N3         -0.0428    1.3493    0.2865 N.ar      1 <0>        -0.5466
     38 H15        -0.9354    1.8441    0.3987 H         1 <0>         0.4590
@<TRIPOS>BOND
     1    1    6 ar
     2    1    2 ar
     3    1   24 1
     4    2    3 ar
     5    2   25 1
     6    3    4 ar
     7    3   26 1
     8    4    5 ar
     9    4    7 1
    10    5    6 ar
    11    5   27 1
    12    6   28 1
    13    7   15 2
    14    7    8 1
    15    8   12 ar
    16    8    9 ar
    17    9   10 ar
    18    9   29 1
    19   10   11 ar
    20   10   30 1
    21   11   23 1
    22   11   37 ar
    23   12   13 1
    24   12   37 ar
    25   13   14 1
    26   13   15 1
    27   15   16 1
    28   16   21 ar
    29   16   17 ar
    30   17   18 ar
    31   17   31 1
    32   18   19 ar
    33   18   32 1
    34   19   20 ar
    35   19   22 1
    36   20   21 ar
    37   20   33 1
    38   21   34 1
    39   23   35 1
    40   23   36 1
    41   37   38 1
@<TRIPOS>MOLECULE
ZINC03833976
   49    51     0     0     0
SMALL
USER_CHARGES

@<TRIPOS>ATOM
      1 C1          2.8104   -7.7158   -0.9675 C.3       1 <0>        -0.1391
      2 C2          3.3579   -7.4135    0.4289 C.3       1 <0>         0.0107
      3 C3          4.1942   -8.5984    0.9163 C.3       1 <0>        -0.1396
      4 C4          2.1936   -7.1798    1.3936 C.3       1 <0>        -0.1397
      5 C5          4.2203   -6.1789    0.3739 C.2       1 <0>         0.1245
      6 C6          3.7584   -4.8641    0.2653 C.2       1 <0>        -0.2452
      7 C7          4.8421   -4.0407    0.2466 C.2       1 <0>         0.3229
      8 N1          5.9513   -4.8242    0.3356 N.pl3     1 <0>        -0.3549
      9 N2          5.5280   -6.1568    0.4192 N.2       1 <0>        -0.2686
     10 C8          7.2797   -4.3773    0.3446 C.ar      1 <0>         0.2204
     11 C9          7.6487   -3.2770   -0.4177 C.ar      1 <0>        -0.1575
     12 C10         8.9573   -2.8355   -0.4023 C.ar      1 <0>        -0.0212
     13 C11         9.9019   -3.4948    0.3627 C.ar      1 <0>        -0.0549
     14 C12         9.5388   -4.5946    1.1182 C.ar      1 <0>        -0.0240
     15 C13         8.2305   -5.0374    1.1114 C.ar      1 <0>        -0.1118
     16 N3         11.3047   -3.0225    0.3726 N.pl3     1 <0>         0.0275
     17 O1         12.1378   -3.6025    1.0457 O.2       1 <0>        -0.1516
     18 O2         11.6259   -2.0539   -0.2923 O.3       1 <0>        -0.1538
     19 N4          4.8201   -2.6498    0.1481 N.am      1 <0>        -0.6580
     20 C14         3.6431   -1.9990    0.0604 C.2       1 <0>         0.7191
     21 O3          2.6005   -2.6246    0.0672 O.2       1 <0>        -0.5291
     22 N5          3.6217   -0.6548   -0.0348 N.am      1 <0>        -0.6699
     23 C15         2.4008    0.0296   -0.0071 C.ar      1 <0>         0.1871
     24 C16         1.2963   -0.5427    0.6099 C.ar      1 <0>        -0.1151
     25 C17         0.0928    0.1346    0.6364 C.ar      1 <0>        -0.0759
     26 C18        -0.0139    1.3822    0.0498 C.ar      1 <0>        -0.1145
     27 C19         1.0840    1.9565   -0.5662 C.ar      1 <0>        -0.0090
     28 C20         2.2919    1.2829   -0.5965 C.ar      1 <0>        -0.0679
     29 Cl1         3.6699    2.0031   -1.3687 Cl        1 <0>        -0.0425
     30 Cl2         0.9455    3.5230   -1.3014 Cl        1 <0>        -0.0387
     31 H1          3.6399   -7.8824   -1.6548 H         1 <0>         0.0572
     32 H2          2.1867   -8.6088   -0.9277 H         1 <0>         0.0685
     33 H3          2.2147   -6.8717   -1.3148 H         1 <0>         0.0625
     34 H4          4.5842   -8.3830    1.9111 H         1 <0>         0.0578
     35 H5          3.5704   -9.4914    0.9561 H         1 <0>         0.0632
     36 H6          5.0236   -8.7649    0.2291 H         1 <0>         0.0618
     37 H7          1.5979   -6.3357    1.0463 H         1 <0>         0.0645
     38 H8          1.5699   -8.0728    1.4334 H         1 <0>         0.0676
     39 H9          2.5837   -6.9644    2.3884 H         1 <0>         0.0581
     40 H10         2.7249   -4.5561    0.2068 H         1 <0>         0.1860
     41 H11         6.9122   -2.7642   -1.0186 H         1 <0>         0.1476
     42 H12         9.2440   -1.9773   -0.9919 H         1 <0>         0.1662
     43 H13        10.2789   -5.1077    1.7144 H         1 <0>         0.1664
     44 H14         7.9475   -5.8964    1.7016 H         1 <0>         0.1614
     45 H15         5.6518   -2.1507    0.1426 H         1 <0>         0.4103
     46 H16         4.4524   -0.1615   -0.1225 H         1 <0>         0.4138
     47 H17         1.3782   -1.5170    1.0686 H         1 <0>         0.1638
     48 H18        -0.7660   -0.3108    1.1164 H         1 <0>         0.1467
     49 H19        -0.9574    1.9075    0.0685 H         1 <0>         0.1467
@<TRIPOS>BOND
     1    1    2 1
     2    1   31 1
     3    1   32 1
     4    1   33 1
     5    2    3 1
     6    2    4 1
     7    2    5 1
     8    3   34 1
     9    3   35 1
    10    3   36 1
    11    4   37 1
    12    4   38 1
    13    4   39 1
    14    5    9 2
    15    5    6 1
    16    6    7 2
    17    6   40 1
    18    7    8 1
    19    7   19 1
    20    8    9 1
    21    8   10 1
    22   10   15 ar
    23   10   11 ar
    24   11   12 ar
    25   11   41 1
    26   12   13 ar
    27   12   42 1
    28   13   14 ar
    29   13   16 1
    30   14   15 ar
    31   14   43 1
    32   15   44 1
    33   16   17 2
    34   16   18 1
    35   19   20 am
    36   19   45 1
    37   20   21 2
    38   20   22 am
    39   22   23 1
    40   22   46 1
    41   23   28 ar
    42   23   24 ar
    43   24   25 ar
    44   24   47 1
    45   25   26 ar
    46   25   48 1
    47   26   27 ar
    48   26   49 1
    49   27   28 ar
    50   27   30 1
    51   28   29 1
@<TRIPOS>MOLECULE
ZINC03833977
   38    41     0     0     0
SMALL
USER_CHARGES

@<TRIPOS>ATOM
      1 C1          0.0770    6.8341   -3.6210 C.ar      1 <0>        -0.1001
      2 C2          0.4675    7.5402   -2.4970 C.ar      1 <0>        -0.1143
      3 C3          1.3146    6.9612   -1.5747 C.ar      1 <0>        -0.1017
      4 C4          1.7773    5.6605   -1.7772 C.ar      1 <0>        -0.0466
      5 C5          1.3837    4.9555   -2.9153 C.ar      1 <0>        -0.0914
      6 C6          0.5324    5.5441   -3.8275 C.ar      1 <0>        -0.1136
      7 C7          2.6866    5.0335   -0.7923 C.2       1 <0>        -0.0430
      8 C8          4.0548    5.4563   -0.4631 C.ar      1 <0>        -0.1395
      9 C9          4.8856    6.4860   -0.9157 C.ar      1 <0>         0.1063
     10 C10         6.1396    6.5931   -0.3760 C.ar      1 <0>        -0.2294
     11 C11         6.5470    5.6811    0.5979 C.ar      1 <0>         0.5080
     12 C12         4.5214    4.5679    0.5212 C.ar      1 <0>         0.3067
     13 N1          3.5156    3.6680    0.7840 N.pl3     1 <0>        -0.5504
     14 H1          3.5724    2.9458    1.4291 H         1 <0>         0.4338
     15 C13         2.4181    3.9369   -0.0008 C.2       1 <0>         0.1410
     16 C14         1.1528    3.1768    0.0076 C.ar      1 <0>        -0.0542
     17 C15         1.1733    1.7799    0.0004 C.ar      1 <0>        -0.0837
     18 C16        -0.0126    1.0758    0.0080 C.ar      1 <0>        -0.1090
     19 C17        -1.2213    1.7497    0.0173 C.ar      1 <0>        -0.0613
     20 C18        -1.2494    3.1335    0.0299 C.ar      1 <0>        -0.1003
     21 C19        -0.0704    3.8507    0.0225 C.ar      1 <0>        -0.0424
     22 I1         -3.0859    4.1414    0.0522 I         1 <0>        -0.0162
     23 N2          7.8204    5.7920    1.1434 N.pl3     1 <0>        -0.8174
     24 H2         -0.5862    7.2918   -4.3399 H         1 <0>         0.1285
     25 H3          0.1086    8.5469   -2.3414 H         1 <0>         0.1299
     26 H4          1.6186    7.5134   -0.6978 H         1 <0>         0.1244
     27 H5          1.7417    3.9499   -3.0798 H         1 <0>         0.1224
     28 H6          0.2242    4.9983   -4.7071 H         1 <0>         0.1288
     29 H7          4.5466    7.1796   -1.6710 H         1 <0>         0.1751
     30 H8          6.8076    7.3766   -0.7018 H         1 <0>         0.1863
     31 H9          2.1157    1.2525   -0.0107 H         1 <0>         0.1293
     32 H10         0.0021   -0.0041    0.0020 H         1 <0>         0.1421
     33 H11        -2.1469    1.1932    0.0187 H         1 <0>         0.1392
     34 H12        -0.0935    4.9305    0.0285 H         1 <0>         0.1381
     35 H13         8.1140    5.1635    1.8214 H         1 <0>         0.4207
     36 H14         8.4156    6.4979    0.8461 H         1 <0>         0.4415
     37 N3          5.7731    4.6645    1.0678 N.ar      1 <0>        -0.5467
     38 H15         6.1068    4.0116    1.7865 H         1 <0>         0.4590
@<TRIPOS>BOND
     1    1    6 ar
     2    1    2 ar
     3    1   24 1
     4    2    3 ar
     5    2   25 1
     6    3    4 ar
     7    3   26 1
     8    4    5 ar
     9    4    7 1
    10    5    6 ar
    11    5   27 1
    12    6   28 1
    13    7   15 2
    14    7    8 1
    15    8   12 ar
    16    8    9 ar
    17    9   10 ar
    18    9   29 1
    19   10   11 ar
    20   10   30 1
    21   11   23 1
    22   11   37 ar
    23   12   13 1
    24   12   37 ar
    25   13   14 1
    26   13   15 1
    27   15   16 1
    28   16   21 ar
    29   16   17 ar
    30   17   18 ar
    31   17   31 1
    32   18   19 ar
    33   18   32 1
    34   19   20 ar
    35   19   33 1
    36   20   21 ar
    37   20   22 1
    38   21   34 1
    39   23   35 1
    40   23   36 1
    41   37   38 1
@<TRIPOS>MOLECULE
ZINC03833978
   47    49     0     0     0
SMALL
USER_CHARGES

@<TRIPOS>ATOM
      1 C1          2.8107   -7.7158   -0.9679 C.3       1 <0>        -0.1383
      2 C2          3.3579   -7.4136    0.4286 C.3       1 <0>         0.0121
      3 C3          4.1940   -8.5985    0.9161 C.3       1 <0>        -0.1386
      4 C4          2.1933   -7.1800    1.3930 C.3       1 <0>        -0.1389
      5 C5          4.2202   -6.1789    0.3739 C.2       1 <0>         0.1146
      6 C6          3.7584   -4.8641    0.2653 C.2       1 <0>        -0.2521
      7 C7          4.8421   -4.0407    0.2466 C.2       1 <0>         0.3211
      8 N1          5.9513   -4.8241    0.3356 N.pl3     1 <0>        -0.3455
      9 N2          5.5280   -6.1568    0.4192 N.2       1 <0>        -0.2704
     10 C8          7.2799   -4.3771    0.3453 C.ar      1 <0>         0.1658
     11 C9          7.6488   -3.2765   -0.4164 C.ar      1 <0>        -0.1415
     12 C10         8.9575   -2.8353   -0.4018 C.ar      1 <0>        -0.0803
     13 C11         9.9029   -3.4955    0.3633 C.ar      1 <0>        -0.0418
     14 C12         9.5387   -4.5957    1.1197 C.ar      1 <0>        -0.0821
     15 C13         8.2303   -5.0377    1.1122 C.ar      1 <0>        -0.0968
     16 Cl1        11.5486   -2.9429    0.3740 Cl        1 <0>        -0.0557
     17 N3          4.8201   -2.6498    0.1481 N.am      1 <0>        -0.6563
     18 C14         3.6431   -1.9990    0.0604 C.2       1 <0>         0.7185
     19 O1          2.6005   -2.6246    0.0672 O.2       1 <0>        -0.5310
     20 N4          3.6217   -0.6548   -0.0348 N.am      1 <0>        -0.6710
     21 C15         2.4008    0.0296   -0.0071 C.ar      1 <0>         0.1892
     22 C16         1.2963   -0.5427    0.6099 C.ar      1 <0>        -0.1154
     23 C17         0.0928    0.1346    0.6364 C.ar      1 <0>        -0.0760
     24 C18        -0.0139    1.3822    0.0498 C.ar      1 <0>        -0.1158
     25 C19         1.0840    1.9565   -0.5662 C.ar      1 <0>        -0.0089
     26 C20         2.2919    1.2829   -0.5965 C.ar      1 <0>        -0.0687
     27 Cl2         3.6699    2.0031   -1.3687 Cl        1 <0>        -0.0435
     28 Cl3         0.9455    3.5230   -1.3014 Cl        1 <0>        -0.0401
     29 H1          3.6404   -7.8822   -1.6550 H         1 <0>         0.0567
     30 H2          2.1870   -8.6088   -0.9284 H         1 <0>         0.0665
     31 H3          2.2150   -6.8716   -1.3153 H         1 <0>         0.0617
     32 H4          4.5838   -8.3832    1.9110 H         1 <0>         0.0571
     33 H5          3.5703   -9.4915    0.9557 H         1 <0>         0.0613
     34 H6          5.0237   -8.7649    0.2290 H         1 <0>         0.0614
     35 H7          1.5977   -6.3358    1.0457 H         1 <0>         0.0638
     36 H8          1.5696   -8.0730    1.4326 H         1 <0>         0.0656
     37 H9          2.5831   -6.9646    2.3879 H         1 <0>         0.0573
     38 H10         2.7249   -4.5562    0.2068 H         1 <0>         0.1820
     39 H11         6.9123   -2.7636   -1.0172 H         1 <0>         0.1335
     40 H12         9.2442   -1.9772   -0.9915 H         1 <0>         0.1464
     41 H13        10.2783   -5.1092    1.7160 H         1 <0>         0.1465
     42 H14         7.9467   -5.8968    1.7020 H         1 <0>         0.1468
     43 H15         5.6518   -2.1507    0.1426 H         1 <0>         0.4106
     44 H16         4.4524   -0.1615   -0.1225 H         1 <0>         0.4134
     45 H17         1.3782   -1.5170    1.0686 H         1 <0>         0.1642
     46 H18        -0.7660   -0.3108    1.1164 H         1 <0>         0.1463
     47 H19        -0.9574    1.9075    0.0685 H         1 <0>         0.1462
@<TRIPOS>BOND
     1    1    2 1
     2    1   29 1
     3    1   30 1
     4    1   31 1
     5    2    3 1
     6    2    4 1
     7    2    5 1
     8    3   32 1
     9    3   33 1
    10    3   34 1
    11    4   35 1
    12    4   36 1
    13    4   37 1
    14    5    9 2
    15    5    6 1
    16    6    7 2
    17    6   38 1
    18    7    8 1
    19    7   17 1
    20    8    9 1
    21    8   10 1
    22   10   15 ar
    23   10   11 ar
    24   11   12 ar
    25   11   39 1
    26   12   13 ar
    27   12   40 1
    28   13   14 ar
    29   13   16 1
    30   14   15 ar
    31   14   41 1
    32   15   42 1
    33   17   18 am
    34   17   43 1
    35   18   19 2
    36   18   20 am
    37   20   21 1
    38   20   44 1
    39   21   26 ar
    40   21   22 ar
    41   22   23 ar
    42   22   45 1
    43   23   24 ar
    44   23   46 1
    45   24   25 ar
    46   24   47 1
    47   25   26 ar
    48   25   28 1
    49   26   27 1
@<TRIPOS>MOLECULE
ZINC03833979
   50    52     0     0     0
SMALL
USER_CHARGES

@<TRIPOS>ATOM
      1 C1          0.2764    4.7050    1.8742 C.3       1 <0>        -0.1112
      2 C2          0.0797    3.5398    0.9390 C.ar      1 <0>        -0.0652
      3 C3         -1.1065    2.8320    0.9562 C.ar      1 <0>        -0.1037
      4 C4         -1.2896    1.7661    0.0949 C.ar      1 <0>        -0.1097
      5 C5         -0.2823    1.3980   -0.7783 C.ar      1 <0>        -0.1053
      6 C6          0.9058    2.1016   -0.8002 C.ar      1 <0>        -0.1325
      7 C7          1.0906    3.1762    0.0597 C.ar      1 <0>         0.1419
      8 N1          2.2950    3.8927    0.0395 N.pl3     1 <0>        -0.3416
      9 C8          3.5461    3.3599    0.0944 C.2       1 <0>         0.3208
     10 C9          4.4317    4.3926    0.0490 C.2       1 <0>        -0.2555
     11 C10         3.7009    5.5812   -0.0355 C.2       1 <0>         0.1057
     12 N2          2.4263    5.2846   -0.0469 N.2       1 <0>        -0.2662
     13 C11         4.2827    6.9695   -0.1077 C.3       1 <0>         0.0133
     14 C12         4.8495    7.2127   -1.5078 C.3       1 <0>        -0.1378
     15 C13         3.1877    7.9972    0.1849 C.3       1 <0>        -0.1377
     16 C14         5.4016    7.1079    0.9267 C.3       1 <0>        -0.1382
     17 N3          3.8628    2.0045    0.1807 N.am      1 <0>        -0.6538
     18 C15         5.1457    1.6206    0.3332 C.2       1 <0>         0.7189
     19 O1          6.0270    2.4560    0.3954 O.2       1 <0>        -0.5323
     20 N4          5.4517    0.3107    0.4166 N.am      1 <0>        -0.6717
     21 C16         6.7657   -0.0848    0.6937 C.ar      1 <0>         0.1906
     22 C17         7.6222    0.7728    1.3714 C.ar      1 <0>        -0.1158
     23 C18         8.9180    0.3802    1.6441 C.ar      1 <0>        -0.0760
     24 C19         9.3642   -0.8658    1.2433 C.ar      1 <0>        -0.1166
     25 C20         8.5143   -1.7237    0.5678 C.ar      1 <0>        -0.0087
     26 C21         7.2137   -1.3383    0.2963 C.ar      1 <0>        -0.0695
     27 Cl1         6.1449   -2.4171   -0.5448 Cl        1 <0>        -0.0439
     28 Cl2         9.0785   -3.2870    0.0664 Cl        1 <0>        -0.0407
     29 H1         -0.1445    5.6053    1.4264 H         1 <0>         0.0797
     30 H2         -0.2257    4.5007    2.8198 H         1 <0>         0.0672
     31 H3          1.3416    4.8519    2.0527 H         1 <0>         0.0685
     32 H4         -1.8932    3.1143    1.6401 H         1 <0>         0.1339
     33 H5         -2.2196    1.2170    0.1071 H         1 <0>         0.1320
     34 H6         -0.4266    0.5621   -1.4468 H         1 <0>         0.1339
     35 H7          1.6905    1.8162   -1.4852 H         1 <0>         0.1256
     36 H8          5.5081    4.3086    0.0735 H         1 <0>         0.1784
     37 H9          4.0524    7.1140   -2.2447 H         1 <0>         0.0561
     38 H10         5.2703    8.2168   -1.5600 H         1 <0>         0.0652
     39 H11         5.6296    6.4805   -1.7162 H         1 <0>         0.0609
     40 H12         2.7838    7.8239    1.1824 H         1 <0>         0.0566
     41 H13         3.6085    9.0013    0.1326 H         1 <0>         0.0599
     42 H14         2.3905    7.8985   -0.5520 H         1 <0>         0.0608
     43 H15         6.1817    6.3758    0.7183 H         1 <0>         0.0633
     44 H16         5.8224    8.1121    0.8745 H         1 <0>         0.0641
     45 H17         4.9977    6.9347    1.9242 H         1 <0>         0.0567
     46 H18         3.1597    1.3381    0.1311 H         1 <0>         0.4103
     47 H19         4.7615   -0.3580    0.2847 H         1 <0>         0.4132
     48 H20         7.2753    1.7464    1.6848 H         1 <0>         0.1642
     49 H21         9.5840    1.0476    2.1709 H         1 <0>         0.1460
     50 H22        10.3781   -1.1697    1.4577 H         1 <0>         0.1459
@<TRIPOS>BOND
     1    1    2 1
     2    1   29 1
     3    1   30 1
     4    1   31 1
     5    2    7 ar
     6    2    3 ar
     7    3    4 ar
     8    3   32 1
     9    4    5 ar
    10    4   33 1
    11    5    6 ar
    12    5   34 1
    13    6    7 ar
    14    6   35 1
    15    7    8 1
    16    8   12 1
    17    8    9 1
    18    9   10 2
    19    9   17 1
    20   10   11 1
    21   10   36 1
    22   11   12 2
    23   11   13 1
    24   13   14 1
    25   13   15 1
    26   13   16 1
    27   14   37 1
    28   14   38 1
    29   14   39 1
    30   15   40 1
    31   15   41 1
    32   15   42 1
    33   16   43 1
    34   16   44 1
    35   16   45 1
    36   17   18 am
    37   17   46 1
    38   18   19 2
    39   18   20 am
    40   20   21 1
    41   20   47 1
    42   21   26 ar
    43   21   22 ar
    44   22   23 ar
    45   22   48 1
    46   23   24 ar
    47   23   49 1
    48   24   25 ar
    49   24   50 1
    50   25   26 ar
    51   25   28 1
    52   26   27 1
@<TRIPOS>MOLECULE
ZINC03833980
   40    41     0     0     0
SMALL
USER_CHARGES

@<TRIPOS>ATOM
      1 C1          2.8100   -7.7167   -0.9706 C.3       1 <0>        -0.1372
      2 C2          3.3584   -7.4138    0.4252 C.3       1 <0>         0.0127
      3 C3          4.1965   -8.5977    0.9118 C.3       1 <0>        -0.1372
      4 C4          2.1947   -7.1815    1.3910 C.3       1 <0>        -0.1379
      5 C5          4.2193   -6.1782    0.3695 C.2       1 <0>         0.1021
      6 C6          3.7577   -4.8634    0.2615 C.2       1 <0>        -0.2648
      7 C7          4.8422   -4.0412    0.2430 C.2       1 <0>         0.3149
      8 N1          5.9455   -4.8187    0.3305 N.pl3     1 <0>        -0.3910
      9 N2          5.5267   -6.1527    0.4143 N.2       1 <0>        -0.2798
     10 C8          7.3329   -4.3485    0.3396 C.3       1 <0>         0.0987
     11 N3          4.8201   -2.6499    0.1454 N.am      1 <0>        -0.6541
     12 C9          3.6431   -1.9991    0.0586 C.2       1 <0>         0.7185
     13 O1          2.6005   -2.6247    0.0654 O.2       1 <0>        -0.5321
     14 N4          3.6217   -0.6548   -0.0357 N.am      1 <0>        -0.6722
     15 C10         2.4009    0.0296   -0.0071 C.ar      1 <0>         0.1905
     16 C11         1.2966   -0.5431    0.6100 C.ar      1 <0>        -0.1157
     17 C12         0.0929    0.1338    0.6366 C.ar      1 <0>        -0.0761
     18 C13        -0.0144    1.3814    0.0501 C.ar      1 <0>        -0.1166
     19 C14         1.0833    1.9561   -0.5660 C.ar      1 <0>        -0.0090
     20 C15         2.2915    1.2829   -0.5963 C.ar      1 <0>        -0.0696
     21 Cl1         3.6688    2.0032   -1.3696 Cl        1 <0>        -0.0444
     22 Cl2         0.9441    3.5224   -1.3015 Cl        1 <0>        -0.0409
     23 H1          3.6390   -7.8822   -1.6587 H         1 <0>         0.0556
     24 H2          2.1873   -8.6104   -0.9303 H         1 <0>         0.0643
     25 H3          2.2129   -6.8732   -1.3173 H         1 <0>         0.0607
     26 H4          4.5872   -8.3820    1.9063 H         1 <0>         0.0561
     27 H5          3.5738   -9.4915    0.9522 H         1 <0>         0.0591
     28 H6          5.0255   -8.7632    0.2238 H         1 <0>         0.0604
     29 H7          1.5977   -6.3380    1.0443 H         1 <0>         0.0628
     30 H8          1.5720   -8.0752    1.4313 H         1 <0>         0.0633
     31 H9          2.5854   -6.9657    2.3855 H         1 <0>         0.0562
     32 H10         2.7244   -4.5547    0.2035 H         1 <0>         0.1747
     33 H11         7.6461   -4.1604    1.3666 H         1 <0>         0.0757
     34 H12         7.9769   -5.1082   -0.1033 H         1 <0>         0.0960
     35 H13         7.4080   -3.4270   -0.2377 H         1 <0>         0.0784
     36 H14         5.6518   -2.1508    0.1399 H         1 <0>         0.4090
     37 H15         4.4523   -0.1615   -0.1234 H         1 <0>         0.4129
     38 H16         1.3787   -1.5175    1.0685 H         1 <0>         0.1643
     39 H17        -0.7658   -0.3119    1.1166 H         1 <0>         0.1461
     40 H18        -0.9580    1.9064    0.0689 H         1 <0>         0.1459
@<TRIPOS>BOND
     1    1    2 1
     2    1   23 1
     3    1   24 1
     4    1   25 1
     5    2    3 1
     6    2    4 1
     7    2    5 1
     8    3   26 1
     9    3   27 1
    10    3   28 1
    11    4   29 1
    12    4   30 1
    13    4   31 1
    14    5    9 2
    15    5    6 1
    16    6    7 2
    17    6   32 1
    18    7    8 1
    19    7   11 1
    20    8    9 1
    21    8   10 1
    22   10   33 1
    23   10   34 1
    24   10   35 1
    25   11   12 am
    26   11   36 1
    27   12   13 2
    28   12   14 am
    29   14   15 1
    30   14   37 1
    31   15   20 ar
    32   15   16 ar
    33   16   17 ar
    34   16   38 1
    35   17   18 ar
    36   17   39 1
    37   18   19 ar
    38   18   40 1
    39   19   20 ar
    40   19   22 1
    41   20   21 1
@<TRIPOS>MOLECULE
ZINC03833981
   51    53     0     0     0
SMALL
USER_CHARGES

@<TRIPOS>ATOM
      1 C1          2.8098   -7.7154   -0.9710 C.3       1 <0>        -0.1379
      2 C2          3.3578   -7.4138    0.4253 C.3       1 <0>         0.0127
      3 C3          4.1942   -8.5989    0.9119 C.3       1 <0>        -0.1381
      4 C4          2.1938   -7.1806    1.3906 C.3       1 <0>        -0.1384
      5 C5          4.2201   -6.1791    0.3707 C.2       1 <0>         0.1094
      6 C6          3.7583   -4.8644    0.2630 C.2       1 <0>        -0.2551
      7 C7          4.8422   -4.0410    0.2443 C.2       1 <0>         0.3187
      8 N1          5.9511   -4.8242    0.3329 N.pl3     1 <0>        -0.3376
      9 N2          5.5280   -6.1570    0.4155 N.2       1 <0>        -0.2716
     10 C8          7.2807   -4.3768    0.3427 C.ar      1 <0>         0.1191
     11 C9          7.6484   -3.2757   -0.4188 C.ar      1 <0>        -0.1093
     12 C10         8.9561   -2.8328   -0.4050 C.ar      1 <0>        -0.1819
     13 C11         9.9047   -3.4940    0.3618 C.ar      1 <0>         0.1283
     14 C12         9.5389   -4.5978    1.1184 C.ar      1 <0>        -0.1253
     15 C13         8.2304   -5.0384    1.1094 C.ar      1 <0>        -0.0663
     16 O1         11.1931   -3.0604    0.3713 O.3       1 <0>        -0.3118
     17 C14        11.4992   -1.9182   -0.4311 C.3       1 <0>         0.0239
     18 N3          4.8201   -2.6498    0.1462 N.am      1 <0>        -0.6557
     19 C15         3.6431   -1.9990    0.0590 C.2       1 <0>         0.7180
     20 O2          2.6005   -2.6246    0.0659 O.2       1 <0>        -0.5314
     21 N4          3.6217   -0.6548   -0.0357 N.am      1 <0>        -0.6717
     22 C16         2.4008    0.0296   -0.0076 C.ar      1 <0>         0.1901
     23 C17         1.2964   -0.5429    0.6095 C.ar      1 <0>        -0.1154
     24 C18         0.0930    0.1344    0.6365 C.ar      1 <0>        -0.0758
     25 C19        -0.0140    1.3820    0.0498 C.ar      1 <0>        -0.1163
     26 C20         1.0838    1.9565   -0.5662 C.ar      1 <0>        -0.0089
     27 C21         2.2918    1.2831   -0.5965 C.ar      1 <0>        -0.0692
     28 Cl1         3.6696    2.0036   -1.3687 Cl        1 <0>        -0.0445
     29 Cl2         0.9450    3.5230   -1.3013 Cl        1 <0>        -0.0406
     30 H1          3.6390   -7.8815   -1.6586 H         1 <0>         0.0563
     31 H2          2.1861   -8.6084   -0.9314 H         1 <0>         0.0656
     32 H3          2.2139   -6.8711   -1.3176 H         1 <0>         0.0613
     33 H4          4.5846   -8.3841    1.9066 H         1 <0>         0.0570
     34 H5          3.5705   -9.4920    0.9514 H         1 <0>         0.0603
     35 H6          5.0234   -8.7651    0.2242 H         1 <0>         0.0612
     36 H7          1.5979   -6.3363    1.0439 H         1 <0>         0.0633
     37 H8          1.5701   -8.0736    1.4301 H         1 <0>         0.0646
     38 H9          2.5842   -6.9658    2.3853 H         1 <0>         0.0571
     39 H10         2.7248   -4.5563    0.2053 H         1 <0>         0.1800
     40 H11         6.9109   -2.7632   -1.0186 H         1 <0>         0.1269
     41 H12         9.2415   -1.9737   -0.9941 H         1 <0>         0.1403
     42 H13        10.2777   -5.1124    1.7148 H         1 <0>         0.1441
     43 H14         7.9457   -5.8977    1.6985 H         1 <0>         0.1445
     44 H15        12.5579   -1.6784   -0.3330 H         1 <0>         0.1046
     45 H16        11.2710   -2.1355   -1.4745 H         1 <0>         0.0582
     46 H17        10.9020   -1.0694   -0.0977 H         1 <0>         0.0578
     47 H18         5.6518   -2.1507    0.1408 H         1 <0>         0.4099
     48 H19         4.4523   -0.1615   -0.1234 H         1 <0>         0.4128
     49 H20         1.3784   -1.5174    1.0678 H         1 <0>         0.1645
     50 H21        -0.7657   -0.3110    1.1168 H         1 <0>         0.1463
     51 H22        -0.9576    1.9072    0.0686 H         1 <0>         0.1460
@<TRIPOS>BOND
     1    1    2 1
     2    1   30 1
     3    1   31 1
     4    1   32 1
     5    2    3 1
     6    2    4 1
     7    2    5 1
     8    3   33 1
     9    3   34 1
    10    3   35 1
    11    4   36 1
    12    4   37 1
    13    4   38 1
    14    5    9 2
    15    5    6 1
    16    6    7 2
    17    6   39 1
    18    7    8 1
    19    7   18 1
    20    8    9 1
    21    8   10 1
    22   10   15 ar
    23   10   11 ar
    24   11   12 ar
    25   11   40 1
    26   12   13 ar
    27   12   41 1
    28   13   14 ar
    29   13   16 1
    30   14   15 ar
    31   14   42 1
    32   15   43 1
    33   16   17 1
    34   17   44 1
    35   17   45 1
    36   17   46 1
    37   18   19 am
    38   18   47 1
    39   19   20 2
    40   19   21 am
    41   21   22 1
    42   21   48 1
    43   22   27 ar
    44   22   23 ar
    45   23   24 ar
    46   23   49 1
    47   24   25 ar
    48   24   50 1
    49   25   26 ar
    50   25   51 1
    51   26   27 ar
    52   26   29 1
    53   27   28 1
@<TRIPOS>MOLECULE
ZINC03833982
   50    52     0     0     0
SMALL
USER_CHARGES

@<TRIPOS>ATOM
      1 C1          0.4594    9.1516    2.1080 C.3       1 <0>        -0.1382
      2 C2          1.2471    8.5424    0.9464 C.3       1 <0>         0.0117
      3 C3          2.6417    8.1408    1.4309 C.3       1 <0>        -0.1391
      4 C4          1.3749    9.5716   -0.1785 C.3       1 <0>        -0.1389
      5 C5          0.5236    7.3242    0.4329 C.2       1 <0>         0.1166
      6 C6         -0.6341    7.3315   -0.3504 C.2       1 <0>        -0.2503
      7 C7         -0.9702    6.0386   -0.6113 C.2       1 <0>         0.3221
      8 N1         -0.0498    5.2460    0.0026 N.pl3     1 <0>        -0.3475
      9 N2          0.8736    6.0811    0.6445 N.2       1 <0>        -0.2707
     10 C8         -0.0267    3.8447   -0.0102 C.ar      1 <0>         0.1635
     11 C9         -1.2167    3.1291    0.0023 C.ar      1 <0>        -0.1228
     12 C10        -1.1907    1.7484   -0.0152 C.ar      1 <0>        -0.0876
     13 C11         0.0190    1.0784   -0.0345 C.ar      1 <0>        -0.0770
     14 C12         1.2055    1.7881   -0.0470 C.ar      1 <0>        -0.1561
     15 C13         1.1859    3.1693   -0.0349 C.ar      1 <0>        -0.0614
     16 C14         2.5214    1.0541   -0.0734 C.3       1 <0>         0.5105
     17 F1          2.2862   -0.3249   -0.0811 F         1 <0>        -0.1728
     18 F2          3.2322    1.4124   -1.2239 F         1 <0>        -0.1727
     19 F3          3.2675    1.3936    1.0603 F         1 <0>        -0.1711
     20 N3         -2.0594    5.6054   -1.3668 N.am      1 <0>        -0.6569
     21 C15        -2.8958    6.5054   -1.9209 C.2       1 <0>         0.7191
     22 O1         -2.7005    7.6951   -1.7621 O.2       1 <0>        -0.5325
     23 N4         -3.9485    6.0869   -2.6511 N.am      1 <0>        -0.6733
     24 C16        -4.8697    7.0165   -3.1478 C.ar      1 <0>         0.1832
     25 C17        -4.4407    8.2744   -3.5502 C.ar      1 <0>        -0.1034
     26 C18        -5.3514    9.1898   -4.0404 C.ar      1 <0>        -0.0799
     27 C19        -6.6901    8.8558   -4.1312 C.ar      1 <0>        -0.1103
     28 C20        -7.1223    7.6036   -3.7314 C.ar      1 <0>        -0.0130
     29 C21        -6.2142    6.6805   -3.2445 C.ar      1 <0>        -0.0619
     30 Cl1        -6.7549    5.1069   -2.7495 Cl        1 <0>        -0.0429
     31 Cl2        -8.8039    7.1882   -3.8476 Cl        1 <0>        -0.0399
     32 H1          0.3684    8.4183    2.9093 H         1 <0>         0.0568
     33 H2          0.9827   10.0326    2.4794 H         1 <0>         0.0668
     34 H3         -0.5341    9.4377    1.7628 H         1 <0>         0.0618
     35 H4          3.2029    7.7068    0.6034 H         1 <0>         0.0573
     36 H5          3.1650    9.0219    1.8023 H         1 <0>         0.0617
     37 H6          2.5507    7.4075    2.2323 H         1 <0>         0.0616
     38 H7          0.3814    9.8577   -0.5237 H         1 <0>         0.0638
     39 H8          1.8982   10.4527    0.1929 H         1 <0>         0.0659
     40 H9          1.9361    9.1376   -1.0060 H         1 <0>         0.0574
     41 H10        -1.1651    8.2078   -0.6920 H         1 <0>         0.1829
     42 H11        -2.1616    3.6517    0.0216 H         1 <0>         0.1348
     43 H12        -2.1159    1.1913   -0.0100 H         1 <0>         0.1498
     44 H13         0.0369   -0.0014   -0.0444 H         1 <0>         0.1493
     45 H14         2.1130    3.7232   -0.0451 H         1 <0>         0.1483
     46 H15        -2.2152    4.6564   -1.4935 H         1 <0>         0.4098
     47 H16        -4.0677    5.1415   -2.8324 H         1 <0>         0.4132
     48 H17        -3.3954    8.5369   -3.4795 H         1 <0>         0.1589
     49 H18        -5.0174   10.1682   -4.3530 H         1 <0>         0.1466
     50 H19        -7.3999    9.5739   -4.5146 H         1 <0>         0.1467
@<TRIPOS>BOND
     1    1    2 1
     2    1   32 1
     3    1   33 1
     4    1   34 1
     5    2    3 1
     6    2    4 1
     7    2    5 1
     8    3   35 1
     9    3   36 1
    10    3   37 1
    11    4   38 1
    12    4   39 1
    13    4   40 1
    14    5    9 2
    15    5    6 1
    16    6    7 2
    17    6   41 1
    18    7    8 1
    19    7   20 1
    20    8    9 1
    21    8   10 1
    22   10   15 ar
    23   10   11 ar
    24   11   12 ar
    25   11   42 1
    26   12   13 ar
    27   12   43 1
    28   13   14 ar
    29   13   44 1
    30   14   15 ar
    31   14   16 1
    32   15   45 1
    33   16   17 1
    34   16   18 1
    35   16   19 1
    36   20   21 am
    37   20   46 1
    38   21   22 2
    39   21   23 am
    40   23   24 1
    41   23   47 1
    42   24   29 ar
    43   24   25 ar
    44   25   26 ar
    45   25   48 1
    46   26   27 ar
    47   26   49 1
    48   27   28 ar
    49   27   50 1
    50   28   29 ar
    51   28   31 1
    52   29   30 1
@<TRIPOS>MOLECULE
ZINC03833983
   36    37     0     0     0
SMALL
USER_CHARGES

@<TRIPOS>ATOM
      1 C1          0.9814    6.9115   -1.1903 C.3       1 <0>        -0.1419
      2 C2          0.1160    6.8125    0.0675 C.3       1 <0>         0.0147
      3 C3         -0.8859    7.9686    0.0896 C.3       1 <0>        -0.1489
      4 C4          1.0086    6.8875    1.3079 C.3       1 <0>        -0.1416
      5 C5         -0.6287    5.5024    0.0631 C.2       1 <0>        -0.0054
      6 C6         -0.0853    4.2640    0.0453 C.2       1 <0>        -0.2193
      7 C7         -1.2098    3.3964    0.0492 C.2       1 <0>         0.2605
      8 N1         -2.2655    4.1673    0.0628 N.2       1 <0>        -0.3884
      9 O1         -1.9592    5.3370    0.0760 O.3       1 <0>         0.1034
     10 N2         -1.1915    2.0018    0.0352 N.am      1 <0>        -0.6358
     11 C8         -0.0156    1.3435    0.0156 C.2       1 <0>         0.7214
     12 O2          1.0291    1.9653    0.0050 O.2       1 <0>        -0.5445
     13 N3          0.0021   -0.0041    0.0020 N.am      1 <0>        -0.6730
     14 C9          1.2182   -0.6870   -0.1189 C.ar      1 <0>         0.1841
     15 C10         2.3674   -0.1699    0.4642 C.ar      1 <0>        -0.1042
     16 C11         3.5661   -0.8456    0.3439 C.ar      1 <0>        -0.0806
     17 C12         3.6236   -2.0365   -0.3563 C.ar      1 <0>        -0.1111
     18 C13         2.4810   -2.5557   -0.9391 C.ar      1 <0>        -0.0128
     19 C14         1.2765   -1.8862   -0.8177 C.ar      1 <0>        -0.0625
     20 Cl1        -0.1588   -2.5407   -1.5425 Cl        1 <0>        -0.0417
     21 Cl2         2.5576   -4.0515   -1.8168 Cl        1 <0>        -0.0401
     22 H1          0.3455    6.8581   -2.0740 H         1 <0>         0.0613
     23 H2          1.5200    7.8592   -1.1871 H         1 <0>         0.0725
     24 H3          1.6952    6.0879   -1.2060 H         1 <0>         0.0639
     25 H4         -1.5025    7.8980    0.9857 H         1 <0>         0.0639
     26 H5         -0.3473    8.9162    0.0928 H         1 <0>         0.0693
     27 H6         -1.5219    7.9151   -0.7941 H         1 <0>         0.0638
     28 H7          1.7225    6.0639    1.2922 H         1 <0>         0.0638
     29 H8          1.5473    7.8352    1.3111 H         1 <0>         0.0724
     30 H9          0.3921    6.8170    2.2040 H         1 <0>         0.0613
     31 H10         0.9610    3.9968    0.0310 H         1 <0>         0.1913
     32 H11        -2.0250    1.5058    0.0395 H         1 <0>         0.4185
     33 H12        -0.8278   -0.5008    0.0761 H         1 <0>         0.4148
     34 H13         2.3241    0.7604    1.0111 H         1 <0>         0.1582
     35 H14         4.4598   -0.4429    0.7973 H         1 <0>         0.1461
     36 H15         4.5624   -2.5624   -0.4489 H         1 <0>         0.1465
@<TRIPOS>BOND
     1    1    2 1
     2    1   22 1
     3    1   23 1
     4    1   24 1
     5    2    3 1
     6    2    4 1
     7    2    5 1
     8    3   25 1
     9    3   26 1
    10    3   27 1
    11    4   28 1
    12    4   29 1
    13    4   30 1
    14    5    9 1
    15    5    6 2
    16    6    7 1
    17    6   31 1
    18    7    8 2
    19    7   10 1
    20    8    9 1
    21   10   11 am
    22   10   32 1
    23   11   12 2
    24   11   13 am
    25   13   14 1
    26   13   33 1
    27   14   19 ar
    28   14   15 ar
    29   15   16 ar
    30   15   34 1
    31   16   17 ar
    32   16   35 1
    33   17   18 ar
    34   17   36 1
    35   18   19 ar
    36   18   21 1
    37   19   20 1
@<TRIPOS>MOLECULE
ZINC03833984
   45    48     0     0     0
SMALL
USER_CHARGES

@<TRIPOS>ATOM
      1 C1          8.2935   -0.6792    0.6868 C.3       1 <0>        -0.1553
      2 C2          6.8025   -0.3731    0.8424 C.3       1 <0>         0.0504
      3 O1          6.4371    0.6814   -0.0501 O.3       1 <0>        -0.2964
      4 C3          5.1373    1.0777   -0.0374 C.ar      1 <0>         0.1714
      5 C4          4.2340    0.4618    0.8188 C.ar      1 <0>        -0.1958
      6 C5          2.9160    0.8642    0.8393 C.ar      1 <0>        -0.0259
      7 C6          2.4861    1.8865   -0.0108 C.ar      1 <0>        -0.0912
      8 C7          3.3976    2.5039   -0.8709 C.ar      1 <0>        -0.0520
      9 C8          4.7160    2.0985   -0.8811 C.ar      1 <0>        -0.0735
     10 Cl1         5.8504    2.8647   -1.9487 Cl        1 <0>        -0.0379
     11 C9          1.0746    2.3169    0.0042 C.2       1 <0>         0.1528
     12 C10        -0.0180    1.4755    0.0102 C.2       1 <0>        -0.0500
     13 C11        -1.2062    2.3402    0.0197 C.ar      1 <0>        -0.1379
     14 C12        -2.5825    2.0944    0.0385 C.ar      1 <0>         0.1052
     15 C13        -3.4335    3.1673    0.0524 C.ar      1 <0>        -0.2294
     16 C14        -2.9078    4.4593    0.0539 C.ar      1 <0>         0.5069
     17 C15        -0.7361    3.6648    0.0288 C.ar      1 <0>         0.3054
     18 N1          0.6386    3.6216    0.0154 N.pl3     1 <0>        -0.5519
     19 H1          1.2177    4.3998    0.0136 H         1 <0>         0.4338
     20 N2         -3.7739    5.5463    0.0680 N.pl3     1 <0>        -0.8181
     21 C16         0.0021   -0.0041    0.0020 C.ar      1 <0>        -0.0425
     22 C17         0.5058   -0.6919   -1.1028 C.ar      1 <0>        -0.0907
     23 C18         0.5261   -2.0714   -1.1021 C.ar      1 <0>        -0.1145
     24 C19         0.0388   -2.7729   -0.0136 C.ar      1 <0>        -0.1029
     25 C20        -0.4668   -2.0969    1.0826 C.ar      1 <0>        -0.1163
     26 C21        -0.4879   -0.7175    1.0967 C.ar      1 <0>        -0.1026
     27 H2          8.5722   -1.4835    1.3676 H         1 <0>         0.0848
     28 H3          8.4964   -0.9851   -0.3395 H         1 <0>         0.0703
     29 H4          8.8740    0.2130    0.9216 H         1 <0>         0.0698
     30 H5          6.5995   -0.0672    1.8687 H         1 <0>         0.0686
     31 H6          6.2220   -1.2653    0.6076 H         1 <0>         0.0694
     32 H7          4.5659   -0.3308    1.4730 H         1 <0>         0.1482
     33 H8          2.2154    0.3872    1.5086 H         1 <0>         0.1401
     34 H9          3.0705    3.2970   -1.5270 H         1 <0>         0.1393
     35 H10        -2.9648    1.0843    0.0367 H         1 <0>         0.1745
     36 H11        -4.5026    3.0144    0.0618 H         1 <0>         0.1858
     37 H12        -3.4192    6.4491    0.0695 H         1 <0>         0.4206
     38 H13        -4.7331    5.4021    0.0764 H         1 <0>         0.4412
     39 H14         0.8827   -0.1456   -1.9547 H         1 <0>         0.1235
     40 H15         0.9194   -2.6049   -1.9548 H         1 <0>         0.1286
     41 H16         0.0534   -3.8528   -0.0196 H         1 <0>         0.1279
     42 H17        -0.8461   -2.6503    1.9290 H         1 <0>         0.1292
     43 H18        -0.8825   -0.1910    1.9531 H         1 <0>         0.1245
     44 N3         -1.5768    4.7453    0.0426 N.ar      1 <0>        -0.5463
     45 H19        -1.2257    5.7102    0.0444 H         1 <0>         0.4589
@<TRIPOS>BOND
     1    1    2 1
     2    1   27 1
     3    1   28 1
     4    1   29 1
     5    2    3 1
     6    2   30 1
     7    2   31 1
     8    3    4 1
     9    4    9 ar
    10    4    5 ar
    11    5    6 ar
    12    5   32 1
    13    6    7 ar
    14    6   33 1
    15    7    8 ar
    16    7   11 1
    17    8    9 ar
    18    8   34 1
    19    9   10 1
    20   11   18 1
    21   11   12 2
    22   12   13 1
    23   12   21 1
    24   13   17 ar
    25   13   14 ar
    26   14   15 ar
    27   14   35 1
    28   15   16 ar
    29   15   36 1
    30   16   20 1
    31   16   44 ar
    32   17   18 1
    33   17   44 ar
    34   18   19 1
    35   20   37 1
    36   20   38 1
    37   21   26 ar
    38   21   22 ar
    39   22   23 ar
    40   22   39 1
    41   23   24 ar
    42   23   40 1
    43   24   25 ar
    44   24   41 1
    45   25   26 ar
    46   25   42 1
    47   26   43 1
    48   44   45 1
@<TRIPOS>MOLECULE
ZINC03833985
   43    44     0     0     0
SMALL
USER_CHARGES

@<TRIPOS>ATOM
      1 C1         -4.3857    2.1010    3.6572 C.3       1 <0>        -0.1384
      2 C2         -3.1385    1.2594    3.9350 C.3       1 <0>         0.0119
      3 C3         -3.4873   -0.2252    3.8122 C.3       1 <0>        -0.1383
      4 C4         -2.6324    1.5492    5.3495 C.3       1 <0>        -0.1383
      5 C5         -2.0650    1.6075    2.9362 C.2       1 <0>         0.1157
      6 C6         -1.2870    2.7686    2.9423 C.2       1 <0>        -0.2545
      7 C7         -0.4332    2.7035    1.8843 C.2       1 <0>         0.3261
      8 N1         -0.6768    1.5430    1.2339 N.pl3     1 <0>        -0.4002
      9 N2         -1.7013    0.8740    1.9156 N.2       1 <0>        -0.2679
     10 C8          0.0132    1.0669    0.0324 C.3       1 <0>         0.0950
     11 C9         -0.7272    1.5629   -1.2112 C.3       1 <0>         0.4354
     12 F1         -0.7531    2.9616   -1.2117 F         1 <0>        -0.1803
     13 F2         -0.0683    1.1082   -2.3585 F         1 <0>        -0.1726
     14 F3         -2.0373    1.0722   -1.2006 F         1 <0>        -0.1663
     15 N3          0.5180    3.6613    1.5328 N.am      1 <0>        -0.6545
     16 C10         0.6553    4.7785    2.2742 C.2       1 <0>         0.7212
     17 O1         -0.0501    4.9515    3.2494 O.2       1 <0>        -0.5328
     18 N4          1.5743    5.7039    1.9346 N.am      1 <0>        -0.6735
     19 C11         1.6537    6.9061    2.6474 C.ar      1 <0>         0.1837
     20 C12         1.3946    6.9245    4.0115 C.ar      1 <0>        -0.1036
     21 C13         1.4739    8.1117    4.7129 C.ar      1 <0>        -0.0802
     22 C14         1.8106    9.2825    4.0588 C.ar      1 <0>        -0.1108
     23 C15         2.0696    9.2691    2.6996 C.ar      1 <0>        -0.0130
     24 C16         1.9974    8.0822    1.9927 C.ar      1 <0>        -0.0623
     25 Cl1         2.3288    8.0636    0.2887 Cl        1 <0>        -0.0423
     26 Cl2         2.4925   10.7412    1.8825 Cl        1 <0>        -0.0402
     27 H1         -4.7463    1.8946    2.6495 H         1 <0>         0.0569
     28 H2         -5.1622    1.8492    4.3796 H         1 <0>         0.0661
     29 H3         -4.1372    3.1587    3.7446 H         1 <0>         0.0615
     30 H4         -2.5988   -0.8248    4.0101 H         1 <0>         0.0570
     31 H5         -4.2638   -0.4770    4.5346 H         1 <0>         0.0607
     32 H6         -3.8479   -0.4316    2.8045 H         1 <0>         0.0616
     33 H7         -2.3839    2.6069    5.4369 H         1 <0>         0.0635
     34 H8         -3.4089    1.2974    6.0719 H         1 <0>         0.0650
     35 H9         -1.7439    0.9496    5.5474 H         1 <0>         0.0571
     36 H10        -1.3494    3.5723    3.6609 H         1 <0>         0.1806
     37 H11         0.0334   -0.0229    0.0328 H         1 <0>         0.1483
     38 H12         1.0339    1.4492    0.0241 H         1 <0>         0.1295
     39 H13         1.0807    3.5233    0.7549 H         1 <0>         0.4081
     40 H14         2.1808    5.5370    1.1962 H         1 <0>         0.4132
     41 H15         1.1308    6.0110    4.5237 H         1 <0>         0.1589
     42 H16         1.2723    8.1256    5.7739 H         1 <0>         0.1464
     43 H17         1.8711   10.2094    4.6098 H         1 <0>         0.1464
@<TRIPOS>BOND
     1    1    2 1
     2    1   27 1
     3    1   28 1
     4    1   29 1
     5    2    3 1
     6    2    4 1
     7    2    5 1
     8    3   30 1
     9    3   31 1
    10    3   32 1
    11    4   33 1
    12    4   34 1
    13    4   35 1
    14    5    9 2
    15    5    6 1
    16    6    7 2
    17    6   36 1
    18    7    8 1
    19    7   15 1
    20    8    9 1
    21    8   10 1
    22   10   11 1
    23   10   37 1
    24   10   38 1
    25   11   12 1
    26   11   13 1
    27   11   14 1
    28   15   16 am
    29   15   39 1
    30   16   17 2
    31   16   18 am
    32   18   19 1
    33   18   40 1
    34   19   24 ar
    35   19   20 ar
    36   20   21 ar
    37   20   41 1
    38   21   22 ar
    39   21   42 1
    40   22   23 ar
    41   22   43 1
    42   23   24 ar
    43   23   26 1
    44   24   25 1
@<TRIPOS>MOLECULE
ZINC03833986
   40    43     0     0     0
SMALL
USER_CHARGES

@<TRIPOS>ATOM
      1 C1         -0.0127    1.0858    0.0080 C.3       1 <0>         0.0276
      2 O1         -0.6816    1.5467    1.1837 O.3       1 <0>        -0.3170
      3 C2         -0.7874    2.8920    1.3462 C.ar      1 <0>         0.1523
      4 C3         -0.2539    3.7478    0.3857 C.ar      1 <0>        -0.2203
      5 C4         -0.3519    5.1019    0.5351 C.ar      1 <0>        -0.0252
      6 C5         -0.9909    5.6333    1.6567 C.ar      1 <0>        -0.1232
      7 C6         -1.5328    4.7767    2.6310 C.ar      1 <0>         0.1452
      8 C7         -1.4287    3.3996    2.4606 C.ar      1 <0>        -0.1742
      9 N1         -2.0963    5.5597    3.6159 N.pl3     1 <0>        -0.5818
     10 H1         -2.5404    5.2206    4.4088 H         1 <0>         0.4184
     11 C8         -1.9370    6.8909    3.3113 C.2       1 <0>         0.1202
     12 C9         -1.2624    7.0041    2.1144 C.2       1 <0>        -0.1004
     13 C10        -0.8859    8.2585    1.4254 C.ar      1 <0>        -0.0106
     14 C11         0.0265    9.1347    2.0144 C.ar      1 <0>        -0.1026
     15 C12         0.3770   10.3002    1.3647 C.ar      1 <0>        -0.1170
     16 C13        -0.1824   10.6064    0.1369 C.ar      1 <0>        -0.1181
     17 C14        -1.0914    9.7441   -0.4502 C.ar      1 <0>        -0.1172
     18 C15        -1.4462    8.5729    0.1867 C.ar      1 <0>        -0.1080
     19 C16        -2.4125    8.0198    4.1354 C.ar      1 <0>        -0.0277
     20 C17        -2.2119    8.0127    5.5179 C.ar      1 <0>        -0.0900
     21 C18        -2.6587    9.0704    6.2818 C.ar      1 <0>        -0.1116
     22 C19        -3.3044   10.1375    5.6822 C.ar      1 <0>        -0.0778
     23 C20        -3.5062   10.1516    4.3129 C.ar      1 <0>        -0.0976
     24 C21        -3.0597    9.1022    3.5357 C.ar      1 <0>        -0.0519
     25 I1         -4.4839   11.7736    3.4172 I         1 <0>        -0.0329
     26 H2          0.0021   -0.0041    0.0020 H         1 <0>         0.1009
     27 H3          1.0099    1.4631    0.0003 H         1 <0>         0.0570
     28 H4         -0.5399    1.4469   -0.8751 H         1 <0>         0.0570
     29 H5          0.2408    3.3381   -0.4825 H         1 <0>         0.1314
     30 H6          0.0639    5.7603   -0.2132 H         1 <0>         0.1274
     31 H7         -1.8441    2.7295    3.1987 H         1 <0>         0.1302
     32 H8          0.4603    8.8992    2.9750 H         1 <0>         0.1182
     33 H9          1.0862   10.9773    1.8176 H         1 <0>         0.1214
     34 H10         0.0918   11.5222   -0.3656 H         1 <0>         0.1209
     35 H11        -1.5243    9.9886   -1.4090 H         1 <0>         0.1226
     36 H12        -2.1558    7.9006   -0.2726 H         1 <0>         0.1216
     37 H13        -1.7079    7.1809    5.9873 H         1 <0>         0.1291
     38 H14        -2.5038    9.0662    7.3507 H         1 <0>         0.1362
     39 H15        -3.6521   10.9631    6.2853 H         1 <0>         0.1325
     40 H16        -3.2137    9.1163    2.4668 H         1 <0>         0.1350
@<TRIPOS>BOND
     1    1    2 1
     2    1   26 1
     3    1   27 1
     4    1   28 1
     5    2    3 1
     6    3    8 ar
     7    3    4 ar
     8    4    5 ar
     9    4   29 1
    10    5    6 ar
    11    5   30 1
    12    6   12 1
    13    6    7 ar
    14    7    8 ar
    15    7    9 1
    16    8   31 1
    17    9   10 1
    18    9   11 1
    19   11   12 2
    20   11   19 1
    21   12   13 1
    22   13   18 ar
    23   13   14 ar
    24   14   15 ar
    25   14   32 1
    26   15   16 ar
    27   15   33 1
    28   16   17 ar
    29   16   34 1
    30   17   18 ar
    31   17   35 1
    32   18   36 1
    33   19   24 ar
    34   19   20 ar
    35   20   21 ar
    36   20   37 1
    37   21   22 ar
    38   21   38 1
    39   22   23 ar
    40   22   39 1
    41   23   24 ar
    42   23   25 1
    43   24   40 1
@<TRIPOS>MOLECULE
ZINC03833987
   49    50     0     0     0
SMALL
USER_CHARGES

@<TRIPOS>ATOM
      1 C1          3.5393    2.1168    0.0015 C.3       1 <0>        -0.1535
      2 C2          2.3431    1.1629    0.0068 C.3       1 <0>         0.0633
      3 O1          1.1112    1.9314    0.0138 O.3       1 <0>        -0.3558
      4 C3         -0.0388    1.2392    0.0190 C.2       1 <0>         0.4369
      5 O2         -0.0168    0.0311    0.0178 O.2       1 <0>        -0.4809
      6 C4         -1.3575    1.9687    0.0201 C.3       1 <0>         0.1446
      7 N1         -2.4534    0.9966    0.0195 N.pl3     1 <0>        -0.3832
      8 C5         -3.0528    0.4737   -1.0744 C.2       1 <0>         0.3272
      9 C6         -4.0151   -0.3870   -0.6437 C.2       1 <0>        -0.2571
     10 C7         -4.0030   -0.3777    0.7539 C.2       1 <0>         0.1121
     11 N2         -3.0700    0.4489    1.1516 N.2       1 <0>        -0.2702
     12 C8         -4.9090   -1.1827    1.6495 C.3       1 <0>         0.0125
     13 C9         -4.4571   -2.6445    1.6510 C.3       1 <0>        -0.1377
     14 C10        -4.8432   -0.6272    3.0736 C.3       1 <0>        -0.1375
     15 C11        -6.3466   -1.0939    1.1333 C.3       1 <0>        -0.1378
     16 N3         -2.7393    0.7617   -2.4028 N.am      1 <0>        -0.6554
     17 C12        -3.4210    0.1650   -3.4006 C.2       1 <0>         0.7206
     18 O3         -4.3093   -0.6243   -3.1430 O.2       1 <0>        -0.5325
     19 N4         -3.1182    0.4433   -4.6841 N.am      1 <0>        -0.6745
     20 C13        -3.7607   -0.2451   -5.7200 C.ar      1 <0>         0.1846
     21 C14        -5.0888   -0.6266   -5.5829 C.ar      1 <0>        -0.1035
     22 C15        -5.7209   -1.3053   -6.6064 C.ar      1 <0>        -0.0800
     23 C16        -5.0331   -1.6060   -7.7677 C.ar      1 <0>        -0.1112
     24 C17        -3.7095   -1.2278   -7.9089 C.ar      1 <0>        -0.0130
     25 C18        -3.0727   -0.5428   -6.8895 C.ar      1 <0>        -0.0626
     26 Cl1        -1.4142   -0.0623   -7.0688 Cl        1 <0>        -0.0435
     27 Cl2        -2.8499   -1.6068   -9.3687 Cl        1 <0>        -0.0407
     28 H1          4.4641    1.5399   -0.0037 H         1 <0>         0.0832
     29 H2          3.4984    2.7459   -0.8877 H         1 <0>         0.0680
     30 H3          3.5075    2.7443    0.8923 H         1 <0>         0.0691
     31 H4          2.3840    0.5338    0.8960 H         1 <0>         0.0729
     32 H5          2.3749    0.5354   -0.8840 H         1 <0>         0.0713
     33 H6         -1.4263    2.5934    0.9108 H         1 <0>         0.1453
     34 H7         -1.4269    2.5951   -0.8692 H         1 <0>         0.1276
     35 H8         -4.6737   -0.9702   -1.2702 H         1 <0>         0.1777
     36 H9         -3.4329   -2.7078    2.0187 H         1 <0>         0.0563
     37 H10        -5.1124   -3.2267    2.2988 H         1 <0>         0.0648
     38 H11        -4.5039   -3.0403    0.6365 H         1 <0>         0.0610
     39 H12        -5.1652    0.4142    3.0725 H         1 <0>         0.0569
     40 H13        -5.4985   -1.2094    3.7214 H         1 <0>         0.0597
     41 H14        -3.8191   -0.6904    3.4413 H         1 <0>         0.0604
     42 H15        -6.3934   -1.4897    0.1188 H         1 <0>         0.0630
     43 H16        -7.0019   -1.6762    1.7811 H         1 <0>         0.0638
     44 H17        -6.6685   -0.0525    1.1323 H         1 <0>         0.0569
     45 H18        -2.0307    1.3914   -2.6084 H         1 <0>         0.4066
     46 H19        -2.4550    1.1206   -4.8901 H         1 <0>         0.4125
     47 H20        -5.6272   -0.3931   -4.6762 H         1 <0>         0.1592
     48 H21        -6.7538   -1.6019   -6.4994 H         1 <0>         0.1464
     49 H22        -5.5298   -2.1374   -8.5660 H         1 <0>         0.1463
@<TRIPOS>BOND
     1    1    2 1
     2    1   28 1
     3    1   29 1
     4    1   30 1
     5    2    3 1
     6    2   31 1
     7    2   32 1
     8    3    4 1
     9    4    5 2
    10    4    6 1
    11    6    7 1
    12    6   33 1
    13    6   34 1
    14    7   11 1
    15    7    8 1
    16    8    9 2
    17    8   16 1
    18    9   10 1
    19    9   35 1
    20   10   11 2
    21   10   12 1
    22   12   13 1
    23   12   14 1
    24   12   15 1
    25   13   36 1
    26   13   37 1
    27   13   38 1
    28   14   39 1
    29   14   40 1
    30   14   41 1
    31   15   42 1
    32   15   43 1
    33   15   44 1
    34   16   17 am
    35   16   45 1
    36   17   18 2
    37   17   19 am
    38   19   20 1
    39   19   46 1
    40   20   25 ar
    41   20   21 ar
    42   21   22 ar
    43   21   47 1
    44   22   23 ar
    45   22   48 1
    46   23   24 ar
    47   23   49 1
    48   24   25 ar
    49   24   27 1
    50   25   26 1
@<TRIPOS>MOLECULE
ZINC03833988
   56    58     0     0     0
SMALL
USER_CHARGES

@<TRIPOS>ATOM
      1 C1          1.4552    1.5885    0.0313 C.3       1 <0>        -0.1460
      2 C2          0.0223    1.0523    0.0434 C.3       1 <0>        -0.0581
      3 C3         -0.7183    1.5481   -1.2002 C.3       1 <0>        -0.1464
      4 C4         -0.6871    1.5425    1.2793 C.ar      1 <0>        -0.0774
      5 C5         -0.8306    2.9000    1.4998 C.ar      1 <0>        -0.0869
      6 C6         -1.4845    3.3523    2.6292 C.ar      1 <0>        -0.1483
      7 C7         -1.9887    2.4425    3.5489 C.ar      1 <0>         0.1530
      8 C8         -1.8384    1.0801    3.3273 C.ar      1 <0>        -0.1046
      9 C9         -1.1881    0.6339    2.1934 C.ar      1 <0>        -0.0915
     10 N1         -2.6485    2.8984    4.6983 N.pl3     1 <0>        -0.3416
     11 C10        -2.3413    4.0179    5.4086 C.2       1 <0>         0.3206
     12 C11        -3.2219    4.0991    6.4433 C.2       1 <0>        -0.2554
     13 C12        -4.0786    2.9973    6.3651 C.2       1 <0>         0.1103
     14 N2         -3.7381    2.2800    5.3248 N.2       1 <0>        -0.2718
     15 C13        -5.2039    2.6874    7.3184 C.3       1 <0>         0.0126
     16 C14        -6.3795    3.6269    7.0423 C.3       1 <0>        -0.1379
     17 C15        -5.6528    1.2378    7.1233 C.3       1 <0>        -0.1380
     18 C16        -4.7218    2.8828    8.7572 C.3       1 <0>        -0.1383
     19 N3         -1.3144    4.9183    5.1264 N.am      1 <0>        -0.6558
     20 C17        -1.1222    5.9913    5.9190 C.2       1 <0>         0.7187
     21 O1         -1.8441    6.1743    6.8801 O.2       1 <0>        -0.5340
     22 N4         -0.1298    6.8615    5.6463 N.am      1 <0>        -0.6742
     23 C18         0.0116    8.0245    6.4125 C.ar      1 <0>         0.1845
     24 C19        -0.2887    8.0053    7.7681 C.ar      1 <0>        -0.1036
     25 C20        -0.1480    9.1539    8.5222 C.ar      1 <0>        -0.0800
     26 C21         0.2915   10.3233    7.9294 C.ar      1 <0>        -0.1111
     27 C22         0.5919   10.3472    6.5789 C.ar      1 <0>        -0.0129
     28 C23         0.4580    9.1987    5.8194 C.ar      1 <0>        -0.0625
     29 Cl1         0.8417    9.2264    4.1265 Cl        1 <0>        -0.0431
     30 Cl2         1.1439   11.8174    5.8388 Cl        1 <0>        -0.0406
     31 H1          1.4353    2.6783    0.0307 H         1 <0>         0.0569
     32 H2          1.9828    1.2353    0.9173 H         1 <0>         0.0569
     33 H3          1.9683    1.2339   -0.8626 H         1 <0>         0.0612
     34 H4          0.0422   -0.0375    0.0441 H         1 <0>         0.0812
     35 H5         -0.7382    2.6379   -1.2009 H         1 <0>         0.0569
     36 H6         -0.2052    1.1935   -2.0941 H         1 <0>         0.0612
     37 H7         -1.7391    1.1661   -1.1916 H         1 <0>         0.0574
     38 H8         -0.4343    3.6073    0.7863 H         1 <0>         0.1333
     39 H9         -1.5996    4.4127    2.7990 H         1 <0>         0.1236
     40 H10        -2.2292    0.3700    4.0411 H         1 <0>         0.1361
     41 H11        -1.0706   -0.4257    2.0207 H         1 <0>         0.1336
     42 H12        -3.2507    4.8747    7.1943 H         1 <0>         0.1802
     43 H13        -6.7229    3.4877    6.0173 H         1 <0>         0.0563
     44 H14        -7.1934    3.4027    7.7318 H         1 <0>         0.0657
     45 H15        -6.0596    4.6596    7.1813 H         1 <0>         0.0614
     46 H16        -4.8153    0.5685    7.3199 H         1 <0>         0.0567
     47 H17        -6.4667    1.0136    7.8128 H         1 <0>         0.0605
     48 H18        -5.9963    1.0986    6.0982 H         1 <0>         0.0611
     49 H19        -4.4020    3.9155    8.8962 H         1 <0>         0.0634
     50 H20        -5.5357    2.6586    9.4467 H         1 <0>         0.0648
     51 H21        -3.8843    2.2134    8.9539 H         1 <0>         0.0569
     52 H22        -0.7385    4.7724    4.3596 H         1 <0>         0.4106
     53 H23         0.4865    6.6819    4.9191 H         1 <0>         0.4129
     54 H24        -0.6324    7.0928    8.2325 H         1 <0>         0.1589
     55 H25        -0.3820    9.1387    9.5765 H         1 <0>         0.1464
     56 H26         0.4002   11.2199    8.5216 H         1 <0>         0.1464
@<TRIPOS>BOND
     1    1    2 1
     2    1   31 1
     3    1   32 1
     4    1   33 1
     5    2    3 1
     6    2    4 1
     7    2   34 1
     8    3   35 1
     9    3   36 1
    10    3   37 1
    11    4    9 ar
    12    4    5 ar
    13    5    6 ar
    14    5   38 1
    15    6    7 ar
    16    6   39 1
    17    7    8 ar
    18    7   10 1
    19    8    9 ar
    20    8   40 1
    21    9   41 1
    22   10   14 1
    23   10   11 1
    24   11   12 2
    25   11   19 1
    26   12   13 1
    27   12   42 1
    28   13   14 2
    29   13   15 1
    30   15   16 1
    31   15   17 1
    32   15   18 1
    33   16   43 1
    34   16   44 1
    35   16   45 1
    36   17   46 1
    37   17   47 1
    38   17   48 1
    39   18   49 1
    40   18   50 1
    41   18   51 1
    42   19   20 am
    43   19   52 1
    44   20   21 2
    45   20   22 am
    46   22   23 1
    47   22   53 1
    48   23   28 ar
    49   23   24 ar
    50   24   25 ar
    51   24   54 1
    52   25   26 ar
    53   25   55 1
    54   26   27 ar
    55   26   56 1
    56   27   28 ar
    57   27   30 1
    58   28   29 1
@<TRIPOS>MOLECULE
ZINC03833989
   37    38     0     0     0
SMALL
USER_CHARGES

@<TRIPOS>ATOM
      1 C1          5.4494   -8.9079   -0.6480 C.3       1 <0>        -0.1385
      2 C2          5.8946   -8.0868    0.5638 C.3       1 <0>         0.0192
      3 C3          7.4231   -8.0412    0.6152 C.3       1 <0>        -0.1499
      4 C4          5.3605   -8.7345    1.8429 C.3       1 <0>        -0.1383
      5 C5          5.3539   -6.6851    0.4469 C.2       1 <0>        -0.1378
      6 C6          4.0661   -6.2723    0.3723 C.2       1 <0>        -0.1318
      7 C7          3.7987   -4.9193    0.2685 C.2       1 <0>        -0.1830
      8 C8          4.8422   -4.0441    0.2448 C.2       1 <0>         0.0749
      9 S1          6.2457   -5.1409    0.3640 S.3       1 <0>         0.0622
     10 N1          4.8201   -2.6498    0.1465 N.am      1 <0>        -0.6300
     11 C9          3.6431   -1.9990    0.0592 C.2       1 <0>         0.7120
     12 O1          2.6004   -2.6247    0.0660 O.2       1 <0>        -0.5400
     13 N2          3.6217   -0.6548   -0.0355 N.am      1 <0>        -0.6726
     14 C10         2.4009    0.0296   -0.0074 C.ar      1 <0>         0.1909
     15 C11         1.2964   -0.5429    0.6096 C.ar      1 <0>        -0.1165
     16 C12         0.0929    0.1344    0.6365 C.ar      1 <0>        -0.0765
     17 C13        -0.0140    1.3820    0.0498 C.ar      1 <0>        -0.1172
     18 C14         1.0838    1.9565   -0.5662 C.ar      1 <0>        -0.0088
     19 C15         2.2919    1.2831   -0.5964 C.ar      1 <0>        -0.0698
     20 Cl1         3.6695    2.0033   -1.3690 Cl        1 <0>        -0.0435
     21 Cl2         0.9449    3.5227   -1.3019 Cl        1 <0>        -0.0408
     22 H1          5.8299   -8.4465   -1.5592 H         1 <0>         0.0590
     23 H2          5.8405   -9.9218   -0.5634 H         1 <0>         0.0647
     24 H3          4.3605   -8.9404   -0.6845 H         1 <0>         0.0599
     25 H4          7.7403   -7.4562    1.4785 H         1 <0>         0.0602
     26 H5          7.8142   -9.0551    0.6997 H         1 <0>         0.0681
     27 H6          7.8036   -7.5798   -0.2961 H         1 <0>         0.0600
     28 H7          4.2716   -8.7670    1.8063 H         1 <0>         0.0599
     29 H8          5.7516   -9.7484    1.9275 H         1 <0>         0.0647
     30 H9          5.6777   -8.1496    2.7062 H         1 <0>         0.0591
     31 H10         3.2591   -6.9897    0.3938 H         1 <0>         0.1348
     32 H11         2.7809   -4.5630    0.2078 H         1 <0>         0.1606
     33 H12         5.6518   -2.1507    0.1411 H         1 <0>         0.4164
     34 H13         4.4523   -0.1615   -0.1232 H         1 <0>         0.4137
     35 H14         1.3783   -1.5174    1.0679 H         1 <0>         0.1633
     36 H15        -0.7658   -0.3110    1.1168 H         1 <0>         0.1455
     37 H16        -0.9576    1.9072    0.0686 H         1 <0>         0.1458
@<TRIPOS>BOND
     1    1    2 1
     2    1   22 1
     3    1   23 1
     4    1   24 1
     5    2    3 1
     6    2    4 1
     7    2    5 1
     8    3   25 1
     9    3   26 1
    10    3   27 1
    11    4   28 1
    12    4   29 1
    13    4   30 1
    14    5    9 1
    15    5    6 2
    16    6    7 1
    17    6   31 1
    18    7    8 2
    19    7   32 1
    20    8    9 1
    21    8   10 1
    22   10   11 am
    23   10   33 1
    24   11   12 2
    25   11   13 am
    26   13   14 1
    27   13   34 1
    28   14   19 ar
    29   14   15 ar
    30   15   16 ar
    31   15   35 1
    32   16   17 ar
    33   16   36 1
    34   17   18 ar
    35   17   37 1
    36   18   19 ar
    37   18   21 1
    38   19   20 1
@<TRIPOS>MOLECULE
ZINC03833990
   39    40     0     0     0
SMALL
USER_CHARGES

@<TRIPOS>ATOM
      1 C1         -0.6053    7.9468    1.1436 C.3       1 <0>        -0.1535
      2 C2         -2.0979    7.6408    1.2837 C.3       1 <0>        -0.0654
      3 C3         -2.8872    8.9513    1.3063 C.3       1 <0>        -0.1417
      4 C4         -2.3416    6.8762    2.5863 C.3       1 <0>        -0.1403
      5 C5         -2.5573    6.7891    0.0987 C.3       1 <0>        -0.0350
      6 C6         -1.7798    5.4983    0.0765 C.2       1 <0>         0.0523
      7 C7         -2.3125    4.1935    0.0695 C.2       1 <0>        -0.2669
      8 C8         -1.2097    3.3886    0.0492 C.2       1 <0>         0.2254
      9 O1         -0.1466    4.2083    0.0514 O.3       1 <0>         0.1129
     10 N1         -0.4829    5.3696    0.0608 N.2       1 <0>        -0.3556
     11 N2         -1.1915    2.0018    0.0352 N.am      1 <0>        -0.6317
     12 C9         -0.0156    1.3435    0.0156 C.2       1 <0>         0.7035
     13 O2          1.0291    1.9653    0.0051 O.2       1 <0>        -0.5272
     14 N3          0.0021   -0.0041    0.0020 N.am      1 <0>        -0.6721
     15 C10         1.2181   -0.6869   -0.1189 C.ar      1 <0>         0.1818
     16 C11         2.3674   -0.1698    0.4642 C.ar      1 <0>        -0.1036
     17 C12         3.5661   -0.8453    0.3435 C.ar      1 <0>        -0.0799
     18 C13         3.6238   -2.0360   -0.3572 C.ar      1 <0>        -0.1102
     19 C14         2.4813   -2.5549   -0.9403 C.ar      1 <0>        -0.0133
     20 C15         1.2764   -1.8862   -0.8177 C.ar      1 <0>        -0.0616
     21 Cl1        -0.1589   -2.5410   -1.5420 Cl        1 <0>        -0.0422
     22 Cl2         2.5582   -4.0501   -1.8191 Cl        1 <0>        -0.0401
     23 H1         -0.4317    8.4916    0.2156 H         1 <0>         0.0532
     24 H2         -0.2780    8.5536    1.9879 H         1 <0>         0.0523
     25 H3         -0.0430    7.0132    1.1276 H         1 <0>         0.0773
     26 H4         -3.9505    8.7333    1.4061 H         1 <0>         0.0564
     27 H5         -2.5599    9.5581    2.1505 H         1 <0>         0.0586
     28 H6         -2.7135    9.4961    0.3783 H         1 <0>         0.0569
     29 H7         -1.7793    5.9426    2.5703 H         1 <0>         0.0506
     30 H8         -2.0143    7.4830    3.4306 H         1 <0>         0.0564
     31 H9         -3.4049    6.6582    2.6861 H         1 <0>         0.0557
     32 H10        -2.3836    7.3339   -0.8293 H         1 <0>         0.0859
     33 H11        -3.6206    6.5711    0.1985 H         1 <0>         0.0879
     34 H12        -3.3514    3.8987    0.0786 H         1 <0>         0.1752
     35 H13        -2.0250    1.5058    0.0396 H         1 <0>         0.4313
     36 H14        -0.8278   -0.5008    0.0760 H         1 <0>         0.4147
     37 H15         2.3240    0.7602    1.0115 H         1 <0>         0.1583
     38 H16         4.4599   -0.4426    0.7968 H         1 <0>         0.1466
     39 H17         4.5626   -2.5618   -0.4498 H         1 <0>         0.1468
@<TRIPOS>BOND
     1    1    2 1
     2    1   23 1
     3    1   24 1
     4    1   25 1
     5    2    3 1
     6    2    4 1
     7    2    5 1
     8    3   26 1
     9    3   27 1
    10    3   28 1
    11    4   29 1
    12    4   30 1
    13    4   31 1
    14    5    6 1
    15    5   32 1
    16    5   33 1
    17    6   10 2
    18    6    7 1
    19    7    8 2
    20    7   34 1
    21    8    9 1
    22    8   11 1
    23    9   10 1
    24   11   12 am
    25   11   35 1
    26   12   13 2
    27   12   14 am
    28   14   15 1
    29   14   36 1
    30   15   20 ar
    31   15   16 ar
    32   16   17 ar
    33   16   37 1
    34   17   18 ar
    35   17   38 1
    36   18   19 ar
    37   18   39 1
    38   19   20 ar
    39   19   22 1
    40   20   21 1
@<TRIPOS>MOLECULE
ZINC03833991
   39    40     0     0     0
SMALL
USER_CHARGES

@<TRIPOS>ATOM
      1 C1         -0.7073    1.6269   -1.2398 C.3       1 <0>        -0.1566
      2 C2          0.0245    1.1130    0.0017 C.3       1 <0>        -0.1119
      3 C3         -0.6934    1.6089    1.2586 C.3       1 <0>         0.0138
      4 C4         -0.7041    3.1389    1.2696 C.3       1 <0>        -0.1409
      5 C5         -2.1322    1.0887    1.2629 C.3       1 <0>        -0.1410
      6 C6          0.0274    1.1028    2.4814 C.2       1 <0>         0.0560
      7 C7         -0.1297    1.5642    3.8038 C.2       1 <0>        -0.2632
      8 C8          0.7349    0.7926    4.5259 C.2       1 <0>         0.2245
      9 O1          1.3230   -0.0348    3.6474 O.3       1 <0>         0.1164
     10 N1          0.9144    0.1487    2.5244 N.2       1 <0>        -0.3588
     11 N2          0.9609    0.8523    5.8930 N.am      1 <0>        -0.6314
     12 C9          1.8520    0.0190    6.4658 C.2       1 <0>         0.7036
     13 O2          2.4578   -0.7850    5.7840 O.2       1 <0>        -0.5274
     14 N3          2.0716    0.0770    7.7942 N.am      1 <0>        -0.6720
     15 C10         2.9260   -0.8496    8.4036 C.ar      1 <0>         0.1818
     16 C11         4.0430   -1.3175    7.7241 C.ar      1 <0>        -0.1035
     17 C12         4.8845   -2.2317    8.3273 C.ar      1 <0>        -0.0799
     18 C13         4.6166   -2.6819    9.6070 C.ar      1 <0>        -0.1102
     19 C14         3.5045   -2.2188   10.2877 C.ar      1 <0>        -0.0133
     20 C15         2.6613   -1.2984    9.6913 C.ar      1 <0>        -0.0615
     21 Cl1         1.2705   -0.7107   10.5481 Cl        1 <0>        -0.0422
     22 Cl2         3.1716   -2.7871   11.8939 Cl        1 <0>        -0.0401
     23 H1         -0.1959    1.2736   -2.1352 H         1 <0>         0.0563
     24 H2         -1.7324    1.2563   -1.2367 H         1 <0>         0.0589
     25 H3         -0.7150    2.7168   -1.2319 H         1 <0>         0.0587
     26 H4          0.0321    0.0231   -0.0061 H         1 <0>         0.0686
     27 H5          1.0495    1.4836   -0.0013 H         1 <0>         0.0646
     28 H6         -1.2255    3.5049    0.3852 H         1 <0>         0.0706
     29 H7         -1.2155    3.4921    2.1651 H         1 <0>         0.0599
     30 H8          0.3209    3.5095    1.2666 H         1 <0>         0.0585
     31 H9         -2.1245   -0.0012    1.2550 H         1 <0>         0.0578
     32 H10        -2.6436    1.4420    2.1583 H         1 <0>         0.0596
     33 H11        -2.6536    1.4548    0.3784 H         1 <0>         0.0710
     34 H12        -0.7824    2.3464    4.1626 H         1 <0>         0.1750
     35 H13         0.4776    1.4937    6.4370 H         1 <0>         0.4314
     36 H14         1.6377    0.7607    8.3282 H         1 <0>         0.4148
     37 H15         4.2534   -0.9671    6.7245 H         1 <0>         0.1583
     38 H16         5.7530   -2.5958    7.7984 H         1 <0>         0.1467
     39 H17         5.2765   -3.3968   10.0759 H         1 <0>         0.1468
@<TRIPOS>BOND
     1    1    2 1
     2    1   23 1
     3    1   24 1
     4    1   25 1
     5    2    3 1
     6    2   26 1
     7    2   27 1
     8    3    4 1
     9    3    5 1
    10    3    6 1
    11    4   28 1
    12    4   29 1
    13    4   30 1
    14    5   31 1
    15    5   32 1
    16    5   33 1
    17    6   10 2
    18    6    7 1
    19    7    8 2
    20    7   34 1
    21    8    9 1
    22    8   11 1
    23    9   10 1
    24   11   12 am
    25   11   35 1
    26   12   13 2
    27   12   14 am
    28   14   15 1
    29   14   36 1
    30   15   20 ar
    31   15   16 ar
    32   16   17 ar
    33   16   37 1
    34   17   18 ar
    35   17   38 1
    36   18   19 ar
    37   18   39 1
    38   19   20 ar
    39   19   22 1
    40   20   21 1
@<TRIPOS>MOLECULE
ZINC03833992
   40    43     0     0     0
SMALL
USER_CHARGES

@<TRIPOS>ATOM
      1 C1         -0.0127    1.0858    0.0080 C.3       1 <0>         0.0276
      2 O1         -0.6816    1.5467    1.1837 O.3       1 <0>        -0.3170
      3 C2         -0.1487    1.1821    2.3798 C.ar      1 <0>         0.1523
      4 C3          0.9989    0.3938    2.4131 C.ar      1 <0>        -0.2203
      5 C4          1.5462    0.0193    3.6072 C.ar      1 <0>        -0.0252
      6 C5          0.9529    0.4283    4.8028 C.ar      1 <0>        -0.1235
      7 C6         -0.2058    1.2241    4.7785 C.ar      1 <0>         0.1454
      8 C7         -0.7471    1.6014    3.5533 C.ar      1 <0>        -0.1742
      9 N1         -0.5722    1.4773    6.0831 N.pl3     1 <0>        -0.5816
     10 H1         -1.3406    2.0049    6.3519 H         1 <0>         0.4186
     11 C8          0.3092    0.8729    6.9481 C.2       1 <0>         0.1199
     12 C9          1.2742    0.2092    6.2209 C.2       1 <0>        -0.0997
     13 C10         2.4101   -0.5704    6.7612 C.ar      1 <0>        -0.0104
     14 C11         2.1752   -1.7324    7.4973 C.ar      1 <0>        -0.1023
     15 C12         3.2387   -2.4576    7.9938 C.ar      1 <0>        -0.1172
     16 C13         4.5355   -2.0290    7.7726 C.ar      1 <0>        -0.1189
     17 C14         4.7749   -0.8749    7.0480 C.ar      1 <0>        -0.1179
     18 C15         3.7203   -0.1435    6.5416 C.ar      1 <0>        -0.1078
     19 C16         0.2342    0.9262    8.4215 C.ar      1 <0>        -0.0191
     20 C17        -0.9880    0.7307    9.0693 C.ar      1 <0>        -0.1041
     21 C18        -1.0515    0.7812   10.4461 C.ar      1 <0>        -0.1034
     22 C19         0.0919    1.0250   11.1865 C.ar      1 <0>        -0.1028
     23 C20         1.3069    1.2199   10.5516 C.ar      1 <0>        -0.0312
     24 C21         1.3855    1.1666    9.1742 C.ar      1 <0>        -0.0778
     25 Cl1         2.7353    1.5257   11.4897 Cl        1 <0>        -0.0614
     26 H2          0.0021   -0.0041    0.0020 H         1 <0>         0.0570
     27 H3          1.0099    1.4631    0.0003 H         1 <0>         0.0570
     28 H4         -0.5399    1.4469   -0.8751 H         1 <0>         0.1009
     29 H5          1.4589    0.0763    1.4890 H         1 <0>         0.1315
     30 H6          2.4365   -0.5918    3.6264 H         1 <0>         0.1275
     31 H7         -1.6343    2.2162    3.5193 H         1 <0>         0.1303
     32 H8          1.1633   -2.0653    7.6748 H         1 <0>         0.1187
     33 H9          3.0585   -3.3591    8.5605 H         1 <0>         0.1218
     34 H10         5.3645   -2.5980    8.1668 H         1 <0>         0.1209
     35 H11         5.7895   -0.5456    6.8787 H         1 <0>         0.1226
     36 H12         3.9085    0.7572    5.9762 H         1 <0>         0.1219
     37 H13        -1.8813    0.5399    8.4932 H         1 <0>         0.1292
     38 H14        -1.9958    0.6298   10.9477 H         1 <0>         0.1373
     39 H15         0.0364    1.0632   12.2644 H         1 <0>         0.1369
     40 H16         2.3344    1.3143    8.6799 H         1 <0>         0.1384
@<TRIPOS>BOND
     1    1    2 1
     2    1   26 1
     3    1   27 1
     4    1   28 1
     5    2    3 1
     6    3    8 ar
     7    3    4 ar
     8    4    5 ar
     9    4   29 1
    10    5    6 ar
    11    5   30 1
    12    6   12 1
    13    6    7 ar
    14    7    8 ar
    15    7    9 1
    16    8   31 1
    17    9   10 1
    18    9   11 1
    19   11   12 2
    20   11   19 1
    21   12   13 1
    22   13   18 ar
    23   13   14 ar
    24   14   15 ar
    25   14   32 1
    26   15   16 ar
    27   15   33 1
    28   16   17 ar
    29   16   34 1
    30   17   18 ar
    31   17   35 1
    32   18   36 1
    33   19   24 ar
    34   19   20 ar
    35   20   21 ar
    36   20   37 1
    37   21   22 ar
    38   21   38 1
    39   22   23 ar
    40   22   39 1
    41   23   24 ar
    42   23   25 1
    43   24   40 1
@<TRIPOS>MOLECULE
ZINC03833993
   51    52     0     0     0
SMALL
USER_CHARGES

@<TRIPOS>ATOM
      1 C1          2.8100   -7.7167   -0.9706 C.3       1 <0>        -0.1367
      2 C2          3.3584   -7.4138    0.4252 C.3       1 <0>         0.0133
      3 C3          4.1965   -8.5977    0.9118 C.3       1 <0>        -0.1370
      4 C4          2.1947   -7.1815    1.3910 C.3       1 <0>        -0.1382
      5 C5          4.2193   -6.1782    0.3695 C.2       1 <0>         0.1076
      6 C6          3.7577   -4.8634    0.2615 C.2       1 <0>        -0.2606
      7 C7          4.8422   -4.0412    0.2430 C.2       1 <0>         0.3271
      8 N1          5.9455   -4.8187    0.3305 N.pl3     1 <0>        -0.3755
      9 N2          5.5267   -6.1527    0.4143 N.2       1 <0>        -0.2706
     10 C8          7.3329   -4.3485    0.3396 C.3       1 <0>         0.1151
     11 C9          7.7659   -4.0884    1.7595 C.2       1 <0>         0.4896
     12 O1          6.9917   -4.2773    2.6737 O.2       1 <0>        -0.5128
     13 N3          9.0134   -3.6460    2.0133 N.am      1 <0>        -0.7219
     14 C10         9.4343   -3.3932    3.3935 C.3       1 <0>         0.1203
     15 C11        10.8833   -2.9022    3.4031 C.3       1 <0>         0.0628
     16 O2         10.9613   -1.6356    2.7461 O.3       1 <0>        -0.5733
     17 N4          4.8201   -2.6499    0.1454 N.am      1 <0>        -0.6535
     18 C12         3.6431   -1.9991    0.0586 C.2       1 <0>         0.7197
     19 O3          2.6005   -2.6247    0.0654 O.2       1 <0>        -0.5313
     20 N5          3.6217   -0.6548   -0.0357 N.am      1 <0>        -0.6722
     21 C13         2.4009    0.0296   -0.0071 C.ar      1 <0>         0.1913
     22 C14         1.2966   -0.5431    0.6100 C.ar      1 <0>        -0.1154
     23 C15         0.0929    0.1338    0.6366 C.ar      1 <0>        -0.0760
     24 C16        -0.0144    1.3814    0.0501 C.ar      1 <0>        -0.1170
     25 C17         1.0833    1.9561   -0.5660 C.ar      1 <0>        -0.0090
     26 C18         2.2915    1.2829   -0.5963 C.ar      1 <0>        -0.0696
     27 Cl1         3.6688    2.0032   -1.3696 Cl        1 <0>        -0.0448
     28 Cl2         0.9441    3.5224   -1.3015 Cl        1 <0>        -0.0415
     29 H1          3.6390   -7.8822   -1.6587 H         1 <0>         0.0557
     30 H2          2.1873   -8.6104   -0.9303 H         1 <0>         0.0638
     31 H3          2.2129   -6.8732   -1.3173 H         1 <0>         0.0608
     32 H4          4.5872   -8.3820    1.9063 H         1 <0>         0.0565
     33 H5          3.5738   -9.4915    0.9522 H         1 <0>         0.0587
     34 H6          5.0255   -8.7632    0.2238 H         1 <0>         0.0600
     35 H7          1.5977   -6.3380    1.0443 H         1 <0>         0.0628
     36 H8          1.5720   -8.0752    1.4313 H         1 <0>         0.0630
     37 H9          2.5854   -6.9657    2.3855 H         1 <0>         0.0569
     38 H10         2.7244   -4.5547    0.2035 H         1 <0>         0.1757
     39 H11         7.9769   -5.1082   -0.1033 H         1 <0>         0.1318
     40 H12         7.4080   -3.4270   -0.2377 H         1 <0>         0.1142
     41 H13         9.6326   -3.4950    1.2820 H         1 <0>         0.4051
     42 H14         8.7903   -2.6335    3.8364 H         1 <0>         0.0767
     43 H15         9.3592   -4.3147    3.9708 H         1 <0>         0.0849
     44 H16        11.2252   -2.7990    4.4329 H         1 <0>         0.0669
     45 H17        11.5142   -3.6217    2.8811 H         1 <0>         0.0558
     46 H18        11.8531   -1.2630    2.7146 H         1 <0>         0.3857
     47 H19         5.6518   -2.1508    0.1399 H         1 <0>         0.4064
     48 H20         4.4523   -0.1615   -0.1234 H         1 <0>         0.4125
     49 H21         1.3787   -1.5175    1.0685 H         1 <0>         0.1645
     50 H22        -0.7658   -0.3119    1.1166 H         1 <0>         0.1460
     51 H23        -0.9580    1.9064    0.0689 H         1 <0>         0.1457
@<TRIPOS>BOND
     1    1    2 1
     2    1   29 1
     3    1   30 1
     4    1   31 1
     5    2    3 1
     6    2    4 1
     7    2    5 1
     8    3   32 1
     9    3   33 1
    10    3   34 1
    11    4   35 1
    12    4   36 1
    13    4   37 1
    14    5    9 2
    15    5    6 1
    16    6    7 2
    17    6   38 1
    18    7    8 1
    19    7   17 1
    20    8    9 1
    21    8   10 1
    22   10   11 1
    23   10   39 1
    24   10   40 1
    25   11   12 2
    26   11   13 am
    27   13   14 1
    28   13   41 1
    29   14   15 1
    30   14   42 1
    31   14   43 1
    32   15   16 1
    33   15   44 1
    34   15   45 1
    35   16   46 1
    36   17   18 am
    37   17   47 1
    38   18   19 2
    39   18   20 am
    40   20   21 1
    41   20   48 1
    42   21   26 ar
    43   21   22 ar
    44   22   23 ar
    45   22   49 1
    46   23   24 ar
    47   23   50 1
    48   24   25 ar
    49   24   51 1
    50   25   26 ar
    51   25   28 1
    52   26   27 1
@<TRIPOS>MOLECULE
ZINC03833994
   47    49     0     0     0
SMALL
USER_CHARGES

@<TRIPOS>ATOM
      1 C1         -2.8878   -3.0813    0.1161 C.3       1 <0>        -0.1380
      2 C2         -2.2464   -2.2676    1.2419 C.3       1 <0>         0.0164
      3 C3         -1.8537   -3.2029    2.3873 C.3       1 <0>        -0.1503
      4 C4         -3.2455   -1.2275    1.7525 C.3       1 <0>        -0.1379
      5 C5         -1.0172   -1.5694    0.7197 C.2       1 <0>        -0.1099
      6 C6         -0.9164   -0.6633   -0.2847 C.2       1 <0>        -0.1599
      7 C7          0.3240   -0.1429   -0.6025 C.2       1 <0>         0.1579
      8 C8          1.4208   -0.5765    0.1210 C.2       1 <0>        -0.1710
      9 S1          0.6746   -1.7247    1.2664 S.3       1 <0>         0.0847
     10 C9          2.8389   -0.1894   -0.0174 C.ar      1 <0>        -0.0039
     11 C10         3.1970    1.1599   -0.0579 C.ar      1 <0>        -0.1026
     12 C11         4.5242    1.5144   -0.1825 C.ar      1 <0>        -0.1162
     13 C12         5.4988    0.5367   -0.2780 C.ar      1 <0>        -0.1123
     14 C13         5.1506   -0.8021   -0.2439 C.ar      1 <0>        -0.1152
     15 C14         3.8278   -1.1709   -0.1143 C.ar      1 <0>        -0.1005
     16 N1          0.4680    0.7964   -1.6358 N.am      1 <0>        -0.6637
     17 C15        -0.5568    1.6125   -1.9524 C.2       1 <0>         0.7092
     18 O1         -1.5770    1.5921   -1.2908 O.2       1 <0>        -0.5476
     19 N2         -0.4511    2.4510   -3.0022 N.am      1 <0>        -0.6752
     20 C16        -1.5351    3.2594   -3.3643 C.ar      1 <0>         0.1898
     21 C17        -2.4655    3.6449   -2.4082 C.ar      1 <0>        -0.1164
     22 C18        -3.5343    4.4425   -2.7677 C.ar      1 <0>        -0.0788
     23 C19        -3.6797    4.8576   -4.0787 C.ar      1 <0>        -0.1176
     24 C20        -2.7554    4.4757   -5.0349 C.ar      1 <0>        -0.0100
     25 C21        -1.6791    3.6824   -4.6797 C.ar      1 <0>        -0.0699
     26 Cl1        -0.5146    3.2099   -5.8773 Cl        1 <0>        -0.0444
     27 Cl2        -2.9418    4.9992   -6.6796 Cl        1 <0>        -0.0422
     28 H1         -2.1760   -3.8223   -0.2477 H         1 <0>         0.0590
     29 H2         -3.7768   -3.5863    0.4938 H         1 <0>         0.0662
     30 H3         -3.1675   -2.4150   -0.6999 H         1 <0>         0.0597
     31 H4         -1.3967   -2.6233    3.1893 H         1 <0>         0.0611
     32 H5         -2.7427   -3.7079    2.7650 H         1 <0>         0.0694
     33 H6         -1.1419   -3.9439    2.0235 H         1 <0>         0.0609
     34 H7         -3.5252   -0.5612    0.9365 H         1 <0>         0.0628
     35 H8         -4.1346   -1.7325    2.1303 H         1 <0>         0.0649
     36 H9         -2.7885   -0.6478    2.5546 H         1 <0>         0.0589
     37 H10        -1.7953   -0.3519   -0.8297 H         1 <0>         0.1559
     38 H11         2.4370    1.9240    0.0125 H         1 <0>         0.1222
     39 H12         4.8030    2.5574   -0.2098 H         1 <0>         0.1266
     40 H13         6.5361    0.8198   -0.3792 H         1 <0>         0.1253
     41 H14         5.9163   -1.5600   -0.3186 H         1 <0>         0.1274
     42 H15         3.5574   -2.2162   -0.0875 H         1 <0>         0.1259
     43 H16         1.3038    0.8554   -2.1246 H         1 <0>         0.4104
     44 H17         0.3762    2.4944   -3.5068 H         1 <0>         0.4123
     45 H18        -2.3536    3.3208   -1.3840 H         1 <0>         0.1674
     46 H19        -4.2577    4.7420   -2.0239 H         1 <0>         0.1445
     47 H20        -4.5166    5.4810   -4.3568 H         1 <0>         0.1448
@<TRIPOS>BOND
     1    1    2 1
     2    1   28 1
     3    1   29 1
     4    1   30 1
     5    2    3 1
     6    2    4 1
     7    2    5 1
     8    3   31 1
     9    3   32 1
    10    3   33 1
    11    4   34 1
    12    4   35 1
    13    4   36 1
    14    5    9 1
    15    5    6 2
    16    6    7 1
    17    6   37 1
    18    7    8 2
    19    7   16 1
    20    8    9 1
    21    8   10 1
    22   10   15 ar
    23   10   11 ar
    24   11   12 ar
    25   11   38 1
    26   12   13 ar
    27   12   39 1
    28   13   14 ar
    29   13   40 1
    30   14   15 ar
    31   14   41 1
    32   15   42 1
    33   16   17 am
    34   16   43 1
    35   17   18 2
    36   17   19 am
    37   19   20 1
    38   19   44 1
    39   20   25 ar
    40   20   21 ar
    41   21   22 ar
    42   21   45 1
    43   22   23 ar
    44   22   46 1
    45   23   24 ar
    46   23   47 1
    47   24   25 ar
    48   24   27 1
    49   25   26 1
@<TRIPOS>MOLECULE
ZINC03833995
   37    38     0     0     0
SMALL
USER_CHARGES

@<TRIPOS>ATOM
      1 C1          7.9672   -6.8253    1.3248 C.3       1 <0>        -0.1380
      2 C2          7.1024   -7.0545    0.0836 C.3       1 <0>         0.0154
      3 C3          6.5788   -8.4921    0.0851 C.3       1 <0>        -0.1503
      4 C4          7.9419   -6.8188   -1.1735 C.3       1 <0>        -0.1387
      5 C5          5.9393   -6.0963    0.0979 C.2       1 <0>        -0.1098
      6 C6          5.9511   -4.7410    0.0960 C.2       1 <0>        -0.1754
      7 C7          4.7449   -4.0589    0.1149 C.2       1 <0>         0.1160
      8 C8          3.5882   -4.7729    0.1243 C.2       1 <0>        -0.1737
      9 S1          4.1904   -6.4533    0.1140 S.3       1 <0>         0.0616
     10 N1          4.7179   -2.6512    0.1184 N.am      1 <0>        -0.6686
     11 C9          3.7396   -1.9943   -0.5359 C.2       1 <0>         0.7091
     12 O1          2.8319   -2.6153   -1.0546 O.2       1 <0>        -0.5505
     13 N2          3.7675   -0.6492   -0.6152 N.am      1 <0>        -0.6756
     14 C10         2.6932    0.0405   -1.1896 C.ar      1 <0>         0.1929
     15 C11         1.4285   -0.5326   -1.2080 C.ar      1 <0>        -0.1172
     16 C12         0.3701    0.1495   -1.7757 C.ar      1 <0>        -0.0769
     17 C13         0.5678    1.4026   -2.3260 C.ar      1 <0>        -0.1191
     18 C14         1.8262    1.9777   -2.3099 C.ar      1 <0>        -0.0085
     19 C15         2.8902    1.2995   -1.7428 C.ar      1 <0>        -0.0717
     20 Cl1         4.4691    2.0208   -1.7219 Cl        1 <0>        -0.0447
     21 Cl2         2.0699    3.5512   -3.0017 Cl        1 <0>        -0.0421
     22 H1          7.3690   -6.9933    2.2204 H         1 <0>         0.0602
     23 H2          8.8084   -7.5184    1.3145 H         1 <0>         0.0662
     24 H3          8.3402   -5.8011    1.3237 H         1 <0>         0.0586
     25 H4          5.9627   -8.6553   -0.7991 H         1 <0>         0.0620
     26 H5          7.4200   -9.1851    0.0748 H         1 <0>         0.0688
     27 H6          5.9807   -8.6600    0.9808 H         1 <0>         0.0620
     28 H7          8.3149   -5.7946   -1.1746 H         1 <0>         0.0585
     29 H8          8.7832   -7.5118   -1.1839 H         1 <0>         0.0662
     30 H9          7.3258   -6.9820   -2.0578 H         1 <0>         0.0600
     31 H10         6.8863   -4.2008    0.0840 H         1 <0>         0.1353
     32 H11         2.5690   -4.4159    0.1352 H         1 <0>         0.1945
     33 H12         5.4034   -2.1541    0.5916 H         1 <0>         0.4081
     34 H13         4.5319   -0.1590   -0.2743 H         1 <0>         0.4124
     35 H14         1.2726   -1.5114   -0.7790 H         1 <0>         0.1628
     36 H15        -0.6135   -0.2964   -1.7896 H         1 <0>         0.1448
     37 H16        -0.2609    1.9316   -2.7731 H         1 <0>         0.1452
@<TRIPOS>BOND
     1    1    2 1
     2    1   22 1
     3    1   23 1
     4    1   24 1
     5    2    3 1
     6    2    4 1
     7    2    5 1
     8    3   25 1
     9    3   26 1
    10    3   27 1
    11    4   28 1
    12    4   29 1
    13    4   30 1
    14    5    9 1
    15    5    6 2
    16    6    7 1
    17    6   31 1
    18    7    8 2
    19    7   10 1
    20    8    9 1
    21    8   32 1
    22   10   11 am
    23   10   33 1
    24   11   12 2
    25   11   13 am
    26   13   14 1
    27   13   34 1
    28   14   19 ar
    29   14   15 ar
    30   15   16 ar
    31   15   35 1
    32   16   17 ar
    33   16   36 1
    34   17   18 ar
    35   17   37 1
    36   18   19 ar
    37   18   21 1
    38   19   20 1
@<TRIPOS>MOLECULE
ZINC03833996
   44    45     0     0     0
SMALL
USER_CHARGES

@<TRIPOS>ATOM
      1 C1         -4.3862    2.1021    3.6550 C.3       1 <0>        -0.1374
      2 C2         -3.1395    1.2601    3.9341 C.3       1 <0>         0.0123
      3 C3         -3.4888   -0.2244    3.8115 C.3       1 <0>        -0.1377
      4 C4         -2.6346    1.5500    5.3490 C.3       1 <0>        -0.1385
      5 C5         -2.0650    1.6075    2.9362 C.2       1 <0>         0.1077
      6 C6         -1.2870    2.7686    2.9423 C.2       1 <0>        -0.2605
      7 C7         -0.4332    2.7035    1.8843 C.2       1 <0>         0.3192
      8 N1         -0.6768    1.5430    1.2339 N.pl3     1 <0>        -0.3911
      9 N2         -1.7013    0.8740    1.9156 N.2       1 <0>        -0.2759
     10 C8          0.0132    1.0669    0.0324 C.3       1 <0>         0.1389
     11 C9         -0.7272    1.5629   -1.2112 C.3       1 <0>        -0.0433
     12 C10        -0.0339    1.0845   -2.4184 C.1       1 <0>         0.2009
     13 N3          0.5011    0.7153   -3.3500 N.1       1 <0>        -0.4127
     14 N4          0.5180    3.6613    1.5328 N.am      1 <0>        -0.6559
     15 C11         0.6553    4.7785    2.2742 C.2       1 <0>         0.7194
     16 O1         -0.0501    4.9515    3.2494 O.2       1 <0>        -0.5331
     17 N5          1.5743    5.7039    1.9346 N.am      1 <0>        -0.6746
     18 C12         1.6537    6.9061    2.6474 C.ar      1 <0>         0.1841
     19 C13         1.3946    6.9245    4.0115 C.ar      1 <0>        -0.1035
     20 C14         1.4739    8.1117    4.7129 C.ar      1 <0>        -0.0802
     21 C15         1.8106    9.2825    4.0588 C.ar      1 <0>        -0.1111
     22 C16         2.0696    9.2691    2.6996 C.ar      1 <0>        -0.0132
     23 C17         1.9974    8.0822    1.9927 C.ar      1 <0>        -0.0626
     24 Cl1         2.3288    8.0636    0.2887 Cl        1 <0>        -0.0431
     25 Cl2         2.4925   10.7412    1.8825 Cl        1 <0>        -0.0405
     26 H1         -4.7459    1.8955    2.6470 H         1 <0>         0.0563
     27 H2         -5.1634    1.8509    4.3767 H         1 <0>         0.0642
     28 H3         -4.1373    3.1597    3.7424 H         1 <0>         0.0610
     29 H4         -2.6007   -0.8243    4.0103 H         1 <0>         0.0564
     30 H5         -4.2660   -0.4757    4.5332 H         1 <0>         0.0590
     31 H6         -3.8486   -0.4310    2.8035 H         1 <0>         0.0611
     32 H7         -2.3858    2.6076    5.4364 H         1 <0>         0.0630
     33 H8         -3.4118    1.2988    6.0707 H         1 <0>         0.0634
     34 H9         -1.7465    0.9502    5.5478 H         1 <0>         0.0564
     35 H10        -1.3494    3.5723    3.6609 H         1 <0>         0.1759
     36 H11         0.0334   -0.0229    0.0328 H         1 <0>         0.1130
     37 H12         1.0339    1.4492    0.0241 H         1 <0>         0.0946
     38 H13        -1.7480    1.1806   -1.2029 H         1 <0>         0.1237
     39 H14        -0.7474    2.6527   -1.2116 H         1 <0>         0.1115
     40 H15         1.0807    3.5233    0.7549 H         1 <0>         0.4087
     41 H16         2.1808    5.5370    1.1962 H         1 <0>         0.4129
     42 H17         1.1308    6.0110    4.5237 H         1 <0>         0.1591
     43 H18         1.2723    8.1256    5.7739 H         1 <0>         0.1463
     44 H19         1.8711   10.2094    4.6098 H         1 <0>         0.1462
@<TRIPOS>BOND
     1    1    2 1
     2    1   26 1
     3    1   27 1
     4    1   28 1
     5    2    3 1
     6    2    4 1
     7    2    5 1
     8    3   29 1
     9    3   30 1
    10    3   31 1
    11    4   32 1
    12    4   33 1
    13    4   34 1
    14    5    9 2
    15    5    6 1
    16    6    7 2
    17    6   35 1
    18    7    8 1
    19    7   14 1
    20    8    9 1
    21    8   10 1
    22   10   11 1
    23   10   36 1
    24   10   37 1
    25   11   12 1
    26   11   38 1
    27   11   39 1
    28   12   13 3
    29   14   15 am
    30   14   40 1
    31   15   16 2
    32   15   17 am
    33   17   18 1
    34   17   41 1
    35   18   23 ar
    36   18   19 ar
    37   19   20 ar
    38   19   42 1
    39   20   21 ar
    40   20   43 1
    41   21   22 ar
    42   21   44 1
    43   22   23 ar
    44   22   25 1
    45   23   24 1
@<TRIPOS>MOLECULE
ZINC03833997
   36    37     0     0     0
SMALL
USER_CHARGES

@<TRIPOS>ATOM
      1 C1          1.4549   -2.4336   -1.2917 C.3       1 <0>        -0.1419
      2 C2          1.9205   -1.6934   -0.0362 C.3       1 <0>         0.0147
      3 C3          3.4467   -1.5853   -0.0445 C.3       1 <0>        -0.1487
      4 C4          1.4706   -2.4640    1.2066 C.3       1 <0>        -0.1417
      5 C5          1.3191   -0.3117   -0.0156 C.2       1 <0>        -0.0058
      6 C6          0.0023   -0.0036   -0.0036 C.2       1 <0>        -0.2194
      7 C7         -0.0170    1.4164    0.0138 C.2       1 <0>         0.2608
      8 N1          1.2331    1.7986    0.0106 N.2       1 <0>        -0.3899
      9 O1          1.9852    0.8520   -0.0056 O.3       1 <0>         0.1023
     10 N2         -1.1438    2.2384    0.0258 N.am      1 <0>        -0.6377
     11 C8         -2.3761    1.6926    0.0211 C.2       1 <0>         0.7167
     12 O2         -2.5056    0.4838    0.0066 O.2       1 <0>        -0.5471
     13 N3         -3.4650    2.4869    0.0327 N.am      1 <0>        -0.6748
     14 C9         -4.7433    1.9241   -0.0698 C.ar      1 <0>         0.1469
     15 C10        -5.7469    2.5982   -0.7526 C.ar      1 <0>        -0.1128
     16 C11        -7.0057    2.0393   -0.8566 C.ar      1 <0>        -0.1336
     17 C12        -7.2700    0.8125   -0.2714 C.ar      1 <0>         0.0872
     18 C13        -6.2719    0.1410    0.4145 C.ar      1 <0>        -0.1336
     19 C14        -5.0104    0.6941    0.5163 C.ar      1 <0>        -0.0893
     20 F1         -8.5032    0.2696   -0.3703 F         1 <0>        -0.1379
     21 H1          1.7754   -1.8846   -2.1771 H         1 <0>         0.0613
     22 H2          1.8899   -3.4330   -1.3066 H         1 <0>         0.0724
     23 H3          0.3676   -2.5106   -1.2858 H         1 <0>         0.0639
     24 H4          3.7784   -1.0579    0.8499 H         1 <0>         0.0638
     25 H5          3.8816   -2.5846   -0.0594 H         1 <0>         0.0692
     26 H6          3.7672   -1.0362   -0.9299 H         1 <0>         0.0638
     27 H7          0.3833   -2.5411    1.2125 H         1 <0>         0.0638
     28 H8          1.9055   -3.4634    1.1917 H         1 <0>         0.0723
     29 H9          1.8023   -1.9367    2.1010 H         1 <0>         0.0613
     30 H10        -0.8393   -0.6804   -0.0069 H         1 <0>         0.1910
     31 H11        -1.0406    3.2028    0.0374 H         1 <0>         0.4176
     32 H12        -3.3632    3.4482    0.1119 H         1 <0>         0.4130
     33 H13        -5.5423    3.5570   -1.2057 H         1 <0>         0.1376
     34 H14        -7.7853    2.5612   -1.3915 H         1 <0>         0.1418
     35 H15        -6.4800   -0.8159    0.8699 H         1 <0>         0.1411
     36 H16        -4.2321    0.1699    1.0510 H         1 <0>         0.1516
@<TRIPOS>BOND
     1    1    2 1
     2    1   21 1
     3    1   22 1
     4    1   23 1
     5    2    3 1
     6    2    4 1
     7    2    5 1
     8    3   24 1
     9    3   25 1
    10    3   26 1
    11    4   27 1
    12    4   28 1
    13    4   29 1
    14    5    9 1
    15    5    6 2
    16    6    7 1
    17    6   30 1
    18    7    8 2
    19    7   10 1
    20    8    9 1
    21   10   11 am
    22   10   31 1
    23   11   12 2
    24   11   13 am
    25   13   14 1
    26   13   32 1
    27   14   19 ar
    28   14   15 ar
    29   15   16 ar
    30   15   33 1
    31   16   17 ar
    32   16   34 1
    33   17   18 ar
    34   17   20 1
    35   18   19 ar
    36   18   35 1
    37   19   36 1
@<TRIPOS>MOLECULE
ZINC03833998
   39    40     0     0     0
SMALL
USER_CHARGES

@<TRIPOS>ATOM
      1 C1         -1.8538    2.2847    1.4300 C.3       1 <0>        -0.1387
      2 C2         -1.2374    2.2893    0.0296 C.3       1 <0>         0.0089
      3 C3         -0.8366    3.7171   -0.3466 C.3       1 <0>        -0.1411
      4 C4         -2.2605    1.7641   -0.9796 C.3       1 <0>        -0.1388
      5 C5         -0.0175    1.4047    0.0149 C.2       1 <0>         0.0554
      6 C6          0.0019   -0.0045    0.0130 C.2       1 <0>        -0.2635
      7 C7          1.3314   -0.3148   -0.0084 C.2       1 <0>         0.2235
      8 O1          1.9898    0.8551   -0.0175 O.3       1 <0>         0.1167
      9 N1          1.2267    1.7928   -0.0044 N.2       1 <0>        -0.3584
     10 N2          1.8898   -1.5843   -0.0193 N.am      1 <0>        -0.6319
     11 C8          3.2294   -1.7311   -0.0405 C.2       1 <0>         0.6997
     12 O2          3.9483   -0.7507   -0.0501 O.2       1 <0>        -0.5266
     13 N3          3.7721   -2.9647   -0.0511 N.am      1 <0>        -0.6759
     14 C9          5.1578   -3.1186   -0.1707 C.ar      1 <0>         0.1902
     15 C10         5.6801   -4.1964   -0.8735 C.ar      1 <0>        -0.1436
     16 C11         7.0482   -4.3425   -0.9942 C.ar      1 <0>        -0.0490
     17 C12         7.8977   -3.4232   -0.4064 C.ar      1 <0>        -0.1969
     18 C13         7.3808   -2.3518    0.2986 C.ar      1 <0>        -0.0481
     19 C14         6.0136   -2.1969    0.4181 C.ar      1 <0>        -0.1205
     20 C15         9.3900   -3.5892   -0.5347 C.3       1 <0>         0.5097
     21 F1          9.8668   -4.3604    0.5307 F         1 <0>        -0.1762
     22 F2          9.6859   -4.2294   -1.7429 F         1 <0>        -0.1770
     23 F3         10.0028   -2.3317   -0.5110 F         1 <0>        -0.1759
     24 H1         -1.1250    2.6589    2.1489 H         1 <0>         0.0581
     25 H2         -2.7362    2.9246    1.4406 H         1 <0>         0.0680
     26 H3         -2.1393    1.2675    1.6980 H         1 <0>         0.0602
     27 H4         -0.3975    3.7203   -1.3442 H         1 <0>         0.0584
     28 H5         -1.7190    4.3570   -0.3359 H         1 <0>         0.0642
     29 H6         -0.1078    4.0913    0.3724 H         1 <0>         0.0622
     30 H7         -2.5460    0.7468   -0.7116 H         1 <0>         0.0605
     31 H8         -3.1429    2.4039   -0.9689 H         1 <0>         0.0676
     32 H9         -1.8214    1.7673   -1.9772 H         1 <0>         0.0587
     33 H10        -0.8394   -0.6817    0.0252 H         1 <0>         0.1751
     34 H11         1.3163   -2.3665   -0.0117 H         1 <0>         0.4311
     35 H12         3.2021   -3.7460    0.0241 H         1 <0>         0.4152
     36 H13         5.0173   -4.9173   -1.3288 H         1 <0>         0.1404
     37 H14         7.4550   -5.1778   -1.5447 H         1 <0>         0.1426
     38 H15         8.0468   -1.6355    0.7566 H         1 <0>         0.1420
     39 H16         5.6104   -1.3597    0.9685 H         1 <0>         0.1538
@<TRIPOS>BOND
     1    1    2 1
     2    1   24 1
     3    1   25 1
     4    1   26 1
     5    2    3 1
     6    2    4 1
     7    2    5 1
     8    3   27 1
     9    3   28 1
    10    3   29 1
    11    4   30 1
    12    4   31 1
    13    4   32 1
    14    5    9 2
    15    5    6 1
    16    6    7 2
    17    6   33 1
    18    7    8 1
    19    7   10 1
    20    8    9 1
    21   10   11 am
    22   10   34 1
    23   11   12 2
    24   11   13 am
    25   13   14 1
    26   13   35 1
    27   14   19 ar
    28   14   15 ar
    29   15   16 ar
    30   15   36 1
    31   16   17 ar
    32   16   37 1
    33   17   18 ar
    34   17   20 1
    35   18   19 ar
    36   18   38 1
    37   19   39 1
    38   20   21 1
    39   20   22 1
    40   20   23 1
@<TRIPOS>MOLECULE
ZINC03833999
   36    37     0     0     0
SMALL
USER_CHARGES

@<TRIPOS>ATOM
      1 C1         -0.0180    1.0898   -0.0067 C.3       1 <0>        -0.1387
      2 C2         -0.7277    1.5764    1.2584 C.3       1 <0>         0.0090
      3 C3          0.0177    1.0618    2.4914 C.3       1 <0>        -0.1388
      4 C4         -0.7472    3.1062    1.2758 C.3       1 <0>        -0.1411
      5 C5         -2.1419    1.0559    1.2728 C.2       1 <0>         0.0551
      6 C6         -2.5520   -0.2623    1.5562 C.2       1 <0>        -0.2636
      7 C7         -3.9116   -0.2156    1.4397 C.2       1 <0>         0.2235
      8 O1         -4.2172    1.0502    1.1132 O.3       1 <0>         0.1170
      9 N1         -3.2261    1.7378    1.0310 N.2       1 <0>        -0.3582
     10 N2         -4.7993   -1.2655    1.6224 N.am      1 <0>        -0.6316
     11 C8         -6.1231   -1.0628    1.4712 C.2       1 <0>         0.6988
     12 O2         -6.5392    0.0404    1.1747 O.2       1 <0>        -0.5263
     13 N3         -6.9857   -2.0830    1.6487 N.am      1 <0>        -0.6733
     14 C9         -8.3650   -1.8522    1.5872 C.ar      1 <0>         0.1744
     15 C10        -9.2274   -2.5690    2.4066 C.ar      1 <0>        -0.1255
     16 C11       -10.5874   -2.3362    2.3482 C.ar      1 <0>        -0.0775
     17 C12       -11.0929   -1.3975    1.4660 C.ar      1 <0>        -0.0450
     18 C13       -10.2361   -0.6849    0.6440 C.ar      1 <0>        -0.0115
     19 C14        -8.8735   -0.9105    0.7030 C.ar      1 <0>        -0.1010
     20 Cl1       -10.8735    0.4928   -0.4608 Cl        1 <0>        -0.0376
     21 Cl2       -12.8036   -1.1124    1.3901 Cl        1 <0>        -0.0443
     22 H1         -0.0041   -0.0001   -0.0191 H         1 <0>         0.0602
     23 H2          1.0049    1.4663   -0.0171 H         1 <0>         0.0679
     24 H3         -0.5491    1.4564   -0.8851 H         1 <0>         0.0582
     25 H4          1.0406    1.4383    2.4810 H         1 <0>         0.0675
     26 H5         -0.4879    1.4085    3.3926 H         1 <0>         0.0587
     27 H6          0.0316   -0.0281    2.4790 H         1 <0>         0.0605
     28 H7         -1.2783    3.4728    0.3974 H         1 <0>         0.0623
     29 H8         -1.2528    3.4529    2.1770 H         1 <0>         0.0583
     30 H9          0.2757    3.4827    1.2654 H         1 <0>         0.0641
     31 H10        -1.9344   -1.1119    1.8076 H         1 <0>         0.1751
     32 H11        -4.4673   -2.1457    1.8589 H         1 <0>         0.4311
     33 H12        -6.6508   -2.9773    1.8191 H         1 <0>         0.4161
     34 H13        -8.8342   -3.3050    3.0922 H         1 <0>         0.1444
     35 H14       -11.2576   -2.8904    2.9886 H         1 <0>         0.1501
     36 H15        -8.2053   -0.3550    0.0617 H         1 <0>         0.1617
@<TRIPOS>BOND
     1    1    2 1
     2    1   22 1
     3    1   23 1
     4    1   24 1
     5    2    3 1
     6    2    4 1
     7    2    5 1
     8    3   25 1
     9    3   26 1
    10    3   27 1
    11    4   28 1
    12    4   29 1
    13    4   30 1
    14    5    9 2
    15    5    6 1
    16    6    7 2
    17    6   31 1
    18    7    8 1
    19    7   10 1
    20    8    9 1
    21   10   11 am
    22   10   32 1
    23   11   12 2
    24   11   13 am
    25   13   14 1
    26   13   33 1
    27   14   19 ar
    28   14   15 ar
    29   15   16 ar
    30   15   34 1
    31   16   17 ar
    32   16   35 1
    33   17   18 ar
    34   17   21 1
    35   18   19 ar
    36   18   20 1
    37   19   36 1
@<TRIPOS>MOLECULE
ZINC03834000
   47    48     0     0     0
SMALL
USER_CHARGES

@<TRIPOS>ATOM
      1 C1          2.8100   -7.7167   -0.9706 C.3       1 <0>        -0.1367
      2 C2          3.3584   -7.4138    0.4252 C.3       1 <0>         0.0132
      3 C3          4.1965   -8.5977    0.9118 C.3       1 <0>        -0.1372
      4 C4          2.1947   -7.1815    1.3910 C.3       1 <0>        -0.1382
      5 C5          4.2193   -6.1782    0.3695 C.2       1 <0>         0.1080
      6 C6          3.7577   -4.8634    0.2615 C.2       1 <0>        -0.2601
      7 C7          4.8422   -4.0412    0.2430 C.2       1 <0>         0.3263
      8 N1          5.9455   -4.8187    0.3305 N.pl3     1 <0>        -0.3761
      9 N2          5.5267   -6.1527    0.4143 N.2       1 <0>        -0.2703
     10 C8          7.3329   -4.3485    0.3396 C.3       1 <0>         0.1144
     11 C9          7.7659   -4.0884    1.7595 C.2       1 <0>         0.4876
     12 O1          6.9917   -4.2773    2.6737 O.2       1 <0>        -0.5101
     13 N3          9.0134   -3.6460    2.0133 N.am      1 <0>        -0.7323
     14 C10         9.4343   -3.3932    3.3935 C.3       1 <0>         0.0867
     15 N4          4.8201   -2.6499    0.1454 N.am      1 <0>        -0.6535
     16 C11         3.6431   -1.9991    0.0586 C.2       1 <0>         0.7194
     17 O2          2.6005   -2.6247    0.0654 O.2       1 <0>        -0.5308
     18 N5          3.6217   -0.6548   -0.0357 N.am      1 <0>        -0.6722
     19 C12         2.4009    0.0296   -0.0071 C.ar      1 <0>         0.1909
     20 C13         1.2966   -0.5431    0.6100 C.ar      1 <0>        -0.1154
     21 C14         0.0929    0.1338    0.6366 C.ar      1 <0>        -0.0758
     22 C15        -0.0144    1.3814    0.0501 C.ar      1 <0>        -0.1167
     23 C16         1.0833    1.9561   -0.5660 C.ar      1 <0>        -0.0090
     24 C17         2.2915    1.2829   -0.5963 C.ar      1 <0>        -0.0695
     25 Cl1         3.6688    2.0032   -1.3696 Cl        1 <0>        -0.0451
     26 Cl2         0.9441    3.5224   -1.3015 Cl        1 <0>        -0.0413
     27 H1          3.6390   -7.8822   -1.6587 H         1 <0>         0.0557
     28 H2          2.1873   -8.6104   -0.9303 H         1 <0>         0.0640
     29 H3          2.2129   -6.8732   -1.3173 H         1 <0>         0.0608
     30 H4          4.5872   -8.3820    1.9063 H         1 <0>         0.0566
     31 H5          3.5738   -9.4915    0.9522 H         1 <0>         0.0589
     32 H6          5.0255   -8.7632    0.2238 H         1 <0>         0.0601
     33 H7          1.5977   -6.3380    1.0443 H         1 <0>         0.0628
     34 H8          1.5720   -8.0752    1.4313 H         1 <0>         0.0632
     35 H9          2.5854   -6.9657    2.3855 H         1 <0>         0.0570
     36 H10         2.7244   -4.5547    0.2035 H         1 <0>         0.1758
     37 H11         7.9769   -5.1082   -0.1033 H         1 <0>         0.1323
     38 H12         7.4080   -3.4270   -0.2377 H         1 <0>         0.1140
     39 H13         9.6326   -3.4950    1.2820 H         1 <0>         0.4042
     40 H14        10.4666   -3.0434    3.4003 H         1 <0>         0.0801
     41 H15         8.7903   -2.6335    3.8364 H         1 <0>         0.0612
     42 H16         9.3592   -4.3147    3.9708 H         1 <0>         0.0624
     43 H17         5.6518   -2.1508    0.1399 H         1 <0>         0.4059
     44 H18         4.4523   -0.1615   -0.1234 H         1 <0>         0.4122
     45 H19         1.3787   -1.5175    1.0685 H         1 <0>         0.1646
     46 H20        -0.7658   -0.3119    1.1166 H         1 <0>         0.1461
     47 H21        -0.9580    1.9064    0.0689 H         1 <0>         0.1458
@<TRIPOS>BOND
     1    1    2 1
     2    1   27 1
     3    1   28 1
     4    1   29 1
     5    2    3 1
     6    2    4 1
     7    2    5 1
     8    3   30 1
     9    3   31 1
    10    3   32 1
    11    4   33 1
    12    4   34 1
    13    4   35 1
    14    5    9 2
    15    5    6 1
    16    6    7 2
    17    6   36 1
    18    7    8 1
    19    7   15 1
    20    8    9 1
    21    8   10 1
    22   10   11 1
    23   10   37 1
    24   10   38 1
    25   11   12 2
    26   11   13 am
    27   13   14 1
    28   13   39 1
    29   14   40 1
    30   14   41 1
    31   14   42 1
    32   15   16 am
    33   15   43 1
    34   16   17 2
    35   16   18 am
    36   18   19 1
    37   18   44 1
    38   19   24 ar
    39   19   20 ar
    40   20   21 ar
    41   20   45 1
    42   21   22 ar
    43   21   46 1
    44   22   23 ar
    45   22   47 1
    46   23   24 ar
    47   23   26 1
    48   24   25 1
@<TRIPOS>MOLECULE
ZINC03834001
   36    37     0     0     0
SMALL
USER_CHARGES

@<TRIPOS>ATOM
      1 C1          5.6194    9.5929    2.0532 C.3       1 <0>        -0.1386
      2 C2          5.7472    9.0809    0.6171 C.3       1 <0>         0.0090
      3 C3          7.2256    8.8839    0.2756 C.3       1 <0>        -0.1410
      4 C4          5.1331   10.1003   -0.3444 C.3       1 <0>        -0.1388
      5 C5          5.0219    7.7664    0.4860 C.2       1 <0>         0.0552
      6 C6          3.6269    7.5760    0.4240 C.2       1 <0>        -0.2650
      7 C7          3.4848    6.2229    0.3093 C.2       1 <0>         0.2249
      8 O1          4.7267    5.7132    0.3151 O.3       1 <0>         0.1163
      9 N1          5.5617    6.5826    0.4077 N.2       1 <0>        -0.3591
     10 N2          2.2954    5.5161    0.2121 N.am      1 <0>        -0.6329
     11 C8          2.3166    4.1729    0.1036 C.2       1 <0>         0.6983
     12 O2          3.3784    3.5807    0.0909 O.2       1 <0>        -0.5278
     13 N3          1.1608    3.4860    0.0092 N.am      1 <0>        -0.6746
     14 C9          1.1765    2.0863    0.0087 C.ar      1 <0>         0.1637
     15 C10         2.1331    1.4011    0.7460 C.ar      1 <0>        -0.1066
     16 C11         2.1461    0.0201    0.7441 C.ar      1 <0>        -0.0875
     17 C12         1.2072   -0.6809    0.0079 C.ar      1 <0>        -0.0482
     18 C13         0.2528   -0.0005   -0.7277 C.ar      1 <0>        -0.0889
     19 C14         0.2352    1.3805   -0.7289 C.ar      1 <0>        -0.1305
     20 Cl1         1.2270   -2.4168    0.0067 Cl        1 <0>        -0.0664
     21 H1          6.0569    8.8667    2.7382 H         1 <0>         0.0581
     22 H2          6.1440   10.5437    2.1480 H         1 <0>         0.0679
     23 H3          4.5662    9.7333    2.2965 H         1 <0>         0.0601
     24 H4          7.3166    8.5191   -0.7475 H         1 <0>         0.0583
     25 H5          7.7502    9.8346    0.3703 H         1 <0>         0.0641
     26 H6          7.6631    8.1576    0.9605 H         1 <0>         0.0622
     27 H7          4.0799   10.2407   -0.1011 H         1 <0>         0.0605
     28 H8          5.6578   11.0511   -0.2496 H         1 <0>         0.0674
     29 H9          5.2242    9.7355   -1.3675 H         1 <0>         0.0587
     30 H10         2.8506    8.3261    0.4588 H         1 <0>         0.1748
     31 H11         1.4482    5.9885    0.2223 H         1 <0>         0.4306
     32 H12         0.3182    3.9617   -0.0583 H         1 <0>         0.4133
     33 H13         2.8636    1.9477    1.3240 H         1 <0>         0.1458
     34 H14         2.8900   -0.5132    1.3174 H         1 <0>         0.1394
     35 H15        -0.4787   -0.5499   -1.3018 H         1 <0>         0.1400
     36 H16        -0.5101    1.9110   -1.3029 H         1 <0>         0.1373
@<TRIPOS>BOND
     1    1    2 1
     2    1   21 1
     3    1   22 1
     4    1   23 1
     5    2    3 1
     6    2    4 1
     7    2    5 1
     8    3   24 1
     9    3   25 1
    10    3   26 1
    11    4   27 1
    12    4   28 1
    13    4   29 1
    14    5    9 2
    15    5    6 1
    16    6    7 2
    17    6   30 1
    18    7    8 1
    19    7   10 1
    20    8    9 1
    21   10   11 am
    22   10   31 1
    23   11   12 2
    24   11   13 am
    25   13   14 1
    26   13   32 1
    27   14   19 ar
    28   14   15 ar
    29   15   16 ar
    30   15   33 1
    31   16   17 ar
    32   16   34 1
    33   17   18 ar
    34   17   20 1
    35   18   19 ar
    36   18   35 1
    37   19   36 1
@<TRIPOS>MOLECULE
ZINC03834002
   55    56     0     0     0
SMALL
USER_CHARGES

@<TRIPOS>ATOM
      1 C1          6.7346   -3.3279   -3.0433 C.3       1 <0>        -0.1521
      2 C2          5.4737   -4.1866   -3.1599 C.3       1 <0>        -0.1229
      3 C3          4.3638   -3.5827   -2.2972 C.3       1 <0>        -0.1200
      4 C4          3.1030   -4.4415   -2.4138 C.3       1 <0>         0.0668
      5 O1          2.0496   -3.8684   -1.5950 O.3       1 <0>        -0.3530
      6 C5          0.8647   -4.5091   -1.5865 C.2       1 <0>         0.5088
      7 O2          0.7154   -5.5188   -2.2450 O.2       1 <0>        -0.4969
      8 C6         -0.2534   -3.9836   -0.7761 C.ar      1 <0>        -0.1045
      9 C7         -0.0827   -2.8260   -0.0136 C.ar      1 <0>        -0.0754
     10 C8         -1.1303   -2.3343    0.7376 C.ar      1 <0>        -0.1098
     11 C9         -2.3474   -2.9902    0.7479 C.ar      1 <0>        -0.1079
     12 C10        -2.5259   -4.1458   -0.0027 C.ar      1 <0>         0.1516
     13 C11        -1.4816   -4.6451   -0.7655 C.ar      1 <0>        -0.0566
     14 N1         -3.7599   -4.8060    0.0117 N.am      1 <0>        -0.6775
     15 C12        -3.8072   -6.1486   -0.0967 C.2       1 <0>         0.7120
     16 O3         -2.7769   -6.7942   -0.1098 O.2       1 <0>        -0.5318
     17 N2         -4.9966   -6.7756   -0.1907 N.am      1 <0>        -0.6557
     18 C13        -5.0456   -8.1651   -0.3030 C.2       1 <0>         0.3153
     19 C14        -3.9771   -9.0079   -0.3298 C.2       1 <0>        -0.2650
     20 C15        -4.4640  -10.3123   -0.4517 C.2       1 <0>         0.1027
     21 N3         -5.7707  -10.2610   -0.4967 N.2       1 <0>        -0.2816
     22 N4         -6.1636   -8.9201   -0.3990 N.pl3     1 <0>        -0.3922
     23 C16        -7.5417   -8.4231   -0.4038 C.3       1 <0>         0.0998
     24 C17        -3.6272  -11.5637   -0.5202 C.3       1 <0>         0.0127
     25 C18        -3.0855  -11.8918    0.8726 C.3       1 <0>        -0.1369
     26 C19        -4.4877  -12.7260   -1.0195 C.3       1 <0>        -0.1365
     27 C20        -2.4587  -11.3438   -1.4831 C.3       1 <0>        -0.1385
     28 H1          6.5181   -2.3160   -3.3858 H         1 <0>         0.0560
     29 H2          7.0588   -3.2977   -2.0031 H         1 <0>         0.0563
     30 H3          7.5254   -3.7581   -3.6580 H         1 <0>         0.0579
     31 H4          5.6903   -5.1985   -2.8174 H         1 <0>         0.0663
     32 H5          5.1496   -4.2167   -4.2002 H         1 <0>         0.0659
     33 H6          4.1473   -2.5709   -2.6397 H         1 <0>         0.0750
     34 H7          4.6880   -3.5526   -1.2569 H         1 <0>         0.0754
     35 H8          3.3195   -5.4534   -2.0713 H         1 <0>         0.0725
     36 H9          2.7788   -4.4716   -3.4540 H         1 <0>         0.0718
     37 H10         0.8679   -2.3133   -0.0155 H         1 <0>         0.1417
     38 H11        -0.9978   -1.4366    1.3231 H         1 <0>         0.1394
     39 H12        -3.1622   -2.6031    1.3418 H         1 <0>         0.1347
     40 H13        -1.6183   -5.5434   -1.3493 H         1 <0>         0.1531
     41 H14        -4.5811   -4.2973    0.0998 H         1 <0>         0.4117
     42 H15        -5.8185   -6.2606   -0.1803 H         1 <0>         0.4077
     43 H16        -2.9381   -8.7199   -0.2682 H         1 <0>         0.1744
     44 H17        -7.8505   -8.2183   -1.4289 H         1 <0>         0.0748
     45 H18        -8.2005   -9.1748    0.0309 H         1 <0>         0.0953
     46 H19        -7.5993   -7.5064    0.1831 H         1 <0>         0.0779
     47 H20        -3.9179  -12.0484    1.5586 H         1 <0>         0.0554
     48 H21        -2.4802  -12.7969    0.8231 H         1 <0>         0.0640
     49 H22        -2.4724  -11.0637    1.2284 H         1 <0>         0.0605
     50 H23        -4.8737  -12.4923   -2.0117 H         1 <0>         0.0560
     51 H24        -3.8824  -13.6312   -1.0690 H         1 <0>         0.0589
     52 H25        -5.3202  -12.8827   -0.3335 H         1 <0>         0.0602
     53 H26        -1.8456  -10.5157   -1.1273 H         1 <0>         0.0632
     54 H27        -1.8534  -12.2489   -1.5326 H         1 <0>         0.0631
     55 H28        -2.8446  -11.1101   -2.4753 H         1 <0>         0.0563
@<TRIPOS>BOND
     1    1    2 1
     2    1   28 1
     3    1   29 1
     4    1   30 1
     5    2    3 1
     6    2   31 1
     7    2   32 1
     8    3    4 1
     9    3   33 1
    10    3   34 1
    11    4    5 1
    12    4   35 1
    13    4   36 1
    14    5    6 1
    15    6    7 2
    16    6    8 1
    17    8   13 ar
    18    8    9 ar
    19    9   10 ar
    20    9   37 1
    21   10   11 ar
    22   10   38 1
    23   11   12 ar
    24   11   39 1
    25   12   13 ar
    26   12   14 1
    27   13   40 1
    28   14   15 am
    29   14   41 1
    30   15   16 2
    31   15   17 am
    32   17   18 1
    33   17   42 1
    34   18   22 1
    35   18   19 2
    36   19   20 1
    37   19   43 1
    38   20   21 2
    39   20   24 1
    40   21   22 1
    41   22   23 1
    42   23   44 1
    43   23   45 1
    44   23   46 1
    45   24   25 1
    46   24   26 1
    47   24   27 1
    48   25   47 1
    49   25   48 1
    50   25   49 1
    51   26   50 1
    52   26   51 1
    53   26   52 1
    54   27   53 1
    55   27   54 1
    56   27   55 1
@<TRIPOS>MOLECULE
ZINC03834003
   33    34     0     0     0
SMALL
USER_CHARGES

@<TRIPOS>ATOM
      1 C1         -2.9449    7.1756   -1.3300 C.3       1 <0>        -0.1439
      2 C2         -2.5573    6.7891    0.0987 C.3       1 <0>        -0.0193
      3 C3         -3.8229    6.6078    0.9392 C.3       1 <0>        -0.1440
      4 C4         -1.7798    5.4983    0.0765 C.2       1 <0>         0.0504
      5 C5         -2.3125    4.1935    0.0695 C.2       1 <0>        -0.2629
      6 C6         -1.2097    3.3886    0.0492 C.2       1 <0>         0.2249
      7 O1         -0.1466    4.2083    0.0514 O.3       1 <0>         0.1172
      8 N1         -0.4829    5.3696    0.0608 N.2       1 <0>        -0.3632
      9 N2         -1.1915    2.0018    0.0352 N.am      1 <0>        -0.6312
     10 C7         -0.0156    1.3435    0.0156 C.2       1 <0>         0.7036
     11 O2          1.0291    1.9653    0.0051 O.2       1 <0>        -0.5273
     12 N3          0.0021   -0.0041    0.0020 N.am      1 <0>        -0.6719
     13 C8          1.2181   -0.6869   -0.1189 C.ar      1 <0>         0.1817
     14 C9          2.3674   -0.1698    0.4642 C.ar      1 <0>        -0.1036
     15 C10         3.5661   -0.8453    0.3435 C.ar      1 <0>        -0.0798
     16 C11         3.6238   -2.0360   -0.3572 C.ar      1 <0>        -0.1101
     17 C12         2.4813   -2.5549   -0.9403 C.ar      1 <0>        -0.0133
     18 C13         1.2764   -1.8862   -0.8177 C.ar      1 <0>        -0.0615
     19 Cl1        -0.1589   -2.5410   -1.5420 Cl        1 <0>        -0.0422
     20 Cl2         2.5582   -4.0501   -1.8191 Cl        1 <0>        -0.0401
     21 H1         -3.5603    6.3882   -1.7652 H         1 <0>         0.0598
     22 H2         -3.5072    8.1092   -1.3140 H         1 <0>         0.0676
     23 H3         -2.0433    7.3048   -1.9288 H         1 <0>         0.0580
     24 H4         -1.9419    7.5765    0.5338 H         1 <0>         0.0899
     25 H5         -3.5467    6.3324    1.9570 H         1 <0>         0.0590
     26 H6         -4.3852    7.5414    0.9552 H         1 <0>         0.0671
     27 H7         -4.4383    5.8204    0.5040 H         1 <0>         0.0607
     28 H8         -3.3514    3.8987    0.0786 H         1 <0>         0.1759
     29 H9         -2.0250    1.5058    0.0396 H         1 <0>         0.4316
     30 H10        -0.8278   -0.5008    0.0760 H         1 <0>         0.4148
     31 H11         2.3240    0.7602    1.0115 H         1 <0>         0.1583
     32 H12         4.4599   -0.4426    0.7968 H         1 <0>         0.1467
     33 H13         4.5626   -2.5618   -0.4498 H         1 <0>         0.1468
@<TRIPOS>BOND
     1    1    2 1
     2    1   21 1
     3    1   22 1
     4    1   23 1
     5    2    3 1
     6    2    4 1
     7    2   24 1
     8    3   25 1
     9    3   26 1
    10    3   27 1
    11    4    8 2
    12    4    5 1
    13    5    6 2
    14    5   28 1
    15    6    7 1
    16    6    9 1
    17    7    8 1
    18    9   10 am
    19    9   29 1
    20   10   11 2
    21   10   12 am
    22   12   13 1
    23   12   30 1
    24   13   18 ar
    25   13   14 ar
    26   14   15 ar
    27   14   31 1
    28   15   16 ar
    29   15   32 1
    30   16   17 ar
    31   16   33 1
    32   17   18 ar
    33   17   20 1
    34   18   19 1
@<TRIPOS>MOLECULE
ZINC03834004
   40    43     0     0     0
SMALL
USER_CHARGES

@<TRIPOS>ATOM
      1 C1         -0.0127    1.0858    0.0080 C.3       1 <0>         0.0275
      2 O1         -0.6816    1.5467    1.1837 O.3       1 <0>        -0.3169
      3 C2         -0.7874    2.8920    1.3462 C.ar      1 <0>         0.1526
      4 C3         -0.2539    3.7478    0.3857 C.ar      1 <0>        -0.2203
      5 C4         -0.3523    5.1019    0.5349 C.ar      1 <0>        -0.0250
      6 C5         -0.9917    5.6333    1.6563 C.ar      1 <0>        -0.1239
      7 C6         -1.5336    4.7767    2.6306 C.ar      1 <0>         0.1458
      8 C7         -1.4287    3.3996    2.4606 C.ar      1 <0>        -0.1742
      9 N1         -2.0982    5.5596    3.6148 N.pl3     1 <0>        -0.5811
     10 H1         -2.5423    5.2205    4.4077 H         1 <0>         0.4189
     11 C8         -1.9396    6.8909    3.3099 C.2       1 <0>         0.1185
     12 C9         -1.2644    7.0041    2.1133 C.2       1 <0>        -0.0985
     13 C10        -0.8875    8.2585    1.4245 C.ar      1 <0>        -0.0107
     14 C11         0.0238    9.1352    2.0144 C.ar      1 <0>        -0.1026
     15 C12         0.3749   10.3005    1.3647 C.ar      1 <0>        -0.1179
     16 C13        -0.1831   10.6062    0.1361 C.ar      1 <0>        -0.1194
     17 C14        -1.0913    9.7436   -0.4518 C.ar      1 <0>        -0.1183
     18 C15        -1.4464    8.5723    0.1850 C.ar      1 <0>        -0.1081
     19 C16        -2.4167    8.0198    4.1330 C.ar      1 <0>        -0.0022
     20 C17        -2.2173    8.0132    5.5157 C.ar      1 <0>        -0.1189
     21 C18        -2.6647    9.0707    6.2797 C.ar      1 <0>        -0.0867
     22 C19        -3.3098   10.1380    5.6805 C.ar      1 <0>        -0.1464
     23 C20        -3.5115   10.1523    4.3096 C.ar      1 <0>         0.1048
     24 C21        -3.0639    9.1012    3.5322 C.ar      1 <0>        -0.1223
     25 F1         -4.1419   11.1981    3.7315 F         1 <0>        -0.1348
     26 H2          0.0021   -0.0041    0.0020 H         1 <0>         0.1010
     27 H3          1.0099    1.4631    0.0003 H         1 <0>         0.0570
     28 H4         -0.5399    1.4469   -0.8751 H         1 <0>         0.0570
     29 H5          0.2411    3.3381   -0.4824 H         1 <0>         0.1316
     30 H6          0.0635    5.7603   -0.2134 H         1 <0>         0.1276
     31 H7         -1.8435    2.7295    3.1990 H         1 <0>         0.1306
     32 H8          0.4564    8.9001    2.9757 H         1 <0>         0.1195
     33 H9          1.0833   10.9780    1.8183 H         1 <0>         0.1222
     34 H10         0.0916   11.5218   -0.3664 H         1 <0>         0.1213
     35 H11        -1.5234    9.9878   -1.4109 H         1 <0>         0.1230
     36 H12        -2.1551    7.8997   -0.2750 H         1 <0>         0.1222
     37 H13        -1.7134    7.1815    5.9856 H         1 <0>         0.1300
     38 H14        -2.5107    9.0658    7.3487 H         1 <0>         0.1381
     39 H15        -3.6573   10.9636    6.2837 H         1 <0>         0.1389
     40 H16        -3.2176    9.1145    2.4632 H         1 <0>         0.1402
@<TRIPOS>BOND
     1    1    2 1
     2    1   26 1
     3    1   27 1
     4    1   28 1
     5    2    3 1
     6    3    8 ar
     7    3    4 ar
     8    4    5 ar
     9    4   29 1
    10    5    6 ar
    11    5   30 1
    12    6   12 1
    13    6    7 ar
    14    7    8 ar
    15    7    9 1
    16    8   31 1
    17    9   10 1
    18    9   11 1
    19   11   12 2
    20   11   19 1
    21   12   13 1
    22   13   18 ar
    23   13   14 ar
    24   14   15 ar
    25   14   32 1
    26   15   16 ar
    27   15   33 1
    28   16   17 ar
    29   16   34 1
    30   17   18 ar
    31   17   35 1
    32   18   36 1
    33   19   24 ar
    34   19   20 ar
    35   20   21 ar
    36   20   37 1
    37   21   22 ar
    38   21   38 1
    39   22   23 ar
    40   22   39 1
    41   23   24 ar
    42   23   25 1
    43   24   40 1
@<TRIPOS>MOLECULE
ZINC03834005
   51    55     0     0     0
SMALL
USER_CHARGES

@<TRIPOS>ATOM
      1 C1         -7.7142   10.2512    6.5613 C.ar      1 <0>        -0.0942
      2 C2         -7.7761    8.8868    6.7749 C.ar      1 <0>        -0.1192
      3 C3         -6.8426    8.0524    6.1891 C.ar      1 <0>        -0.0945
      4 C4         -5.8469    8.5824    5.3899 C.ar      1 <0>        -0.1374
      5 C5         -5.7816    9.9473    5.1808 C.ar      1 <0>        -0.0944
      6 C6         -6.7185   10.7811    5.7621 C.ar      1 <0>        -0.1192
      7 C7         -4.8290    7.6728    4.7516 C.3       1 <0>         0.1557
      8 N1         -5.3147    7.2418    3.4383 N.pl3     1 <0>        -0.6926
      9 C8         -4.5416    6.3920    2.6561 C.ar      1 <0>         0.5007
     10 C9         -3.3054    5.9587    3.1354 C.ar      1 <0>        -0.2320
     11 C10        -2.5413    5.1216    2.3667 C.ar      1 <0>         0.1059
     12 C11        -3.0392    4.7263    1.1213 C.ar      1 <0>        -0.1416
     13 C12        -2.5233    3.8703    0.0441 C.2       1 <0>        -0.0460
     14 C13        -3.4811    3.8745   -0.9478 C.2       1 <0>         0.1423
     15 N2         -4.5324    4.6705   -0.5556 N.pl3     1 <0>        -0.5523
     16 H1         -5.3303    4.8344   -1.0823 H         1 <0>         0.4332
     17 C14        -4.2900    5.2008    0.6899 C.ar      1 <0>         0.3091
     18 C15        -3.3923    3.1426   -2.2264 C.ar      1 <0>        -0.0708
     19 C16        -2.2102    3.1713   -2.9702 C.ar      1 <0>        -0.0448
     20 C17        -2.1313    2.4809   -4.1611 C.ar      1 <0>        -0.1488
     21 C18        -3.2256    1.7688   -4.6263 C.ar      1 <0>         0.1284
     22 C19        -4.4031    1.7413   -3.8956 C.ar      1 <0>        -0.1513
     23 C20        -4.4920    2.4231   -2.7004 C.ar      1 <0>        -0.0702
     24 F1         -3.1442    1.0984   -5.7965 F         1 <0>        -0.1272
     25 C21        -1.2345    3.1431    0.0293 C.ar      1 <0>        -0.0433
     26 C22        -1.2174    1.7478    0.0173 C.ar      1 <0>        -0.0914
     27 C23        -0.0126    1.0758    0.0080 C.ar      1 <0>        -0.1145
     28 C24         1.1770    1.7824    0.0004 C.ar      1 <0>        -0.1025
     29 C25         1.1668    3.1659    0.0075 C.ar      1 <0>        -0.1159
     30 C26        -0.0313    3.8498    0.0217 C.ar      1 <0>        -0.1022
     31 H2         -8.4439   10.9030    7.0184 H         1 <0>         0.1311
     32 H3         -8.5540    8.4728    7.3993 H         1 <0>         0.1310
     33 H4         -6.8910    6.9865    6.3560 H         1 <0>         0.1266
     34 H5         -5.0011   10.3618    4.5600 H         1 <0>         0.1266
     35 H6         -6.6703   11.8470    5.5949 H         1 <0>         0.1310
     36 H7         -4.6733    6.8000    5.3857 H         1 <0>         0.0994
     37 H8         -3.8871    8.2083    4.6328 H         1 <0>         0.0994
     38 H9         -6.1758    7.5496    3.1147 H         1 <0>         0.4184
     39 H10        -2.9540    6.2802    4.1047 H         1 <0>         0.1837
     40 H11        -1.5808    4.7719    2.7155 H         1 <0>         0.1737
     41 H12        -1.3584    3.7298   -2.6111 H         1 <0>         0.1413
     42 H13        -1.2163    2.4984   -4.7347 H         1 <0>         0.1478
     43 H14        -5.2527    1.1850   -4.2632 H         1 <0>         0.1460
     44 H15        -5.4100    2.4013   -2.1320 H         1 <0>         0.1330
     45 H16        -2.1453    1.1952    0.0190 H         1 <0>         0.1230
     46 H17         0.0021   -0.0041    0.0020 H         1 <0>         0.1288
     47 H18         2.1175    1.2517   -0.0107 H         1 <0>         0.1281
     48 H19         2.0988    3.7117    0.0015 H         1 <0>         0.1294
     49 H20        -0.0379    4.9298    0.0264 H         1 <0>         0.1246
     50 N3         -5.0629    6.0378    1.4493 N.ar      1 <0>        -0.5491
     51 H21        -5.9775    6.3769    1.1290 H         1 <0>         0.4574
@<TRIPOS>BOND
     1    1    6 ar
     2    1    2 ar
     3    1   31 1
     4    2    3 ar
     5    2   32 1
     6    3    4 ar
     7    3   33 1
     8    4    5 ar
     9    4    7 1
    10    5    6 ar
    11    5   34 1
    12    6   35 1
    13    7    8 1
    14    7   36 1
    15    7   37 1
    16    8    9 1
    17    8   38 1
    18    9   10 ar
    19    9   50 ar
    20   10   11 ar
    21   10   39 1
    22   11   12 ar
    23   11   40 1
    24   12   17 ar
    25   12   13 1
    26   13   14 2
    27   13   25 1
    28   14   15 1
    29   14   18 1
    30   15   16 1
    31   15   17 1
    32   17   50 ar
    33   18   23 ar
    34   18   19 ar
    35   19   20 ar
    36   19   41 1
    37   20   21 ar
    38   20   42 1
    39   21   22 ar
    40   21   24 1
    41   22   23 ar
    42   22   43 1
    43   23   44 1
    44   25   30 ar
    45   25   26 ar
    46   26   27 ar
    47   26   45 1
    48   27   28 ar
    49   27   46 1
    50   28   29 ar
    51   28   47 1
    52   29   30 ar
    53   29   48 1
    54   30   49 1
    55   50   51 1
@<TRIPOS>MOLECULE
ZINC03834006
   40    41     0     0     0
SMALL
USER_CHARGES

@<TRIPOS>ATOM
      1 C1          2.3441   -3.6254    0.4084 C.3       1 <0>        -0.1371
      2 C2          1.6184   -3.2733   -0.8917 C.3       1 <0>         0.0126
      3 C3          0.7792   -4.4689   -1.3472 C.3       1 <0>        -0.1370
      4 C4          2.6456   -2.9300   -1.9724 C.3       1 <0>        -0.1383
      5 C5          0.7183   -2.0872   -0.6593 C.2       1 <0>         0.1026
      6 C6          1.1327   -0.7590   -0.5266 C.2       1 <0>        -0.2645
      7 C7          0.0240    0.0057   -0.3301 C.2       1 <0>         0.3142
      8 N1         -1.0474   -0.8198   -0.3345 N.pl3     1 <0>        -0.3914
      9 N2         -0.5849   -2.1246   -0.5479 N.2       1 <0>        -0.2802
     10 C8         -2.4447   -0.4197   -0.1510 C.3       1 <0>         0.0991
     11 N3         -0.0020    1.3888   -0.1508 N.am      1 <0>        -0.6544
     12 C9          1.1479    2.0917   -0.1636 C.2       1 <0>         0.7146
     13 O1          2.2079    1.5202   -0.3314 O.2       1 <0>        -0.5322
     14 N4          1.1228    3.4280    0.0097 N.am      1 <0>        -0.6761
     15 C10         2.3214    4.1435    0.1078 C.ar      1 <0>         0.1782
     16 C11         3.4318    3.5618    0.7052 C.ar      1 <0>        -0.0777
     17 C12         4.6159    4.2688    0.7960 C.ar      1 <0>        -0.0658
     18 C13         4.6923    5.5590    0.3021 C.ar      1 <0>        -0.0766
     19 C14         3.5858    6.1430   -0.2885 C.ar      1 <0>        -0.0665
     20 C15         2.4009    5.4385   -0.3870 C.ar      1 <0>        -0.1033
     21 Br1         3.6950    7.9066   -0.9620 Br        1 <0>        -0.0267
     22 Br2         6.1306    3.4749    1.6029 Br        1 <0>        -0.0248
     23 H1          1.6123   -3.8700    1.1782 H         1 <0>         0.0556
     24 H2          2.9952   -4.4833    0.2402 H         1 <0>         0.0643
     25 H3          2.9420   -2.7736    0.7328 H         1 <0>         0.0608
     26 H4          0.2621   -4.2181   -2.2734 H         1 <0>         0.0560
     27 H5          1.4302   -5.3268   -1.5153 H         1 <0>         0.0592
     28 H6          0.0474   -4.7135   -0.5773 H         1 <0>         0.0604
     29 H7          3.2434   -2.0783   -1.6479 H         1 <0>         0.0629
     30 H8          3.2966   -3.7879   -2.1405 H         1 <0>         0.0634
     31 H9          2.1285   -2.6792   -2.8986 H         1 <0>         0.0560
     32 H10         2.1512   -0.4028   -0.5725 H         1 <0>         0.1746
     33 H11        -2.8872   -0.1904   -1.1204 H         1 <0>         0.0752
     34 H12        -2.9973   -1.2341    0.3172 H         1 <0>         0.0958
     35 H13        -2.4890    0.4633    0.4866 H         1 <0>         0.0783
     36 H14        -0.8480    1.8452   -0.0208 H         1 <0>         0.4086
     37 H15         0.2739    3.8938    0.0665 H         1 <0>         0.4139
     38 H16         3.3714    2.5562    1.0944 H         1 <0>         0.1552
     39 H17         5.6173    6.1113    0.3781 H         1 <0>         0.1467
     40 H18         1.5376    5.8946   -0.8487 H         1 <0>         0.1444
@<TRIPOS>BOND
     1    1    2 1
     2    1   23 1
     3    1   24 1
     4    1   25 1
     5    2    3 1
     6    2    4 1
     7    2    5 1
     8    3   26 1
     9    3   27 1
    10    3   28 1
    11    4   29 1
    12    4   30 1
    13    4   31 1
    14    5    9 2
    15    5    6 1
    16    6    7 2
    17    6   32 1
    18    7    8 1
    19    7   11 1
    20    8    9 1
    21    8   10 1
    22   10   33 1
    23   10   34 1
    24   10   35 1
    25   11   12 am
    26   11   36 1
    27   12   13 2
    28   12   14 am
    29   14   15 1
    30   14   37 1
    31   15   20 ar
    32   15   16 ar
    33   16   17 ar
    34   16   38 1
    35   17   18 ar
    36   17   22 1
    37   18   19 ar
    38   18   39 1
    39   19   20 ar
    40   19   21 1
    41   20   40 1
@<TRIPOS>MOLECULE
ZINC03834007
   34    36     0     0     0
SMALL
USER_CHARGES

@<TRIPOS>ATOM
      1 C1          0.0929    0.1335    0.6365 C.ar      1 <0>        -0.0758
      2 C2          1.2970   -0.5435    0.6094 C.ar      1 <0>        -0.1154
      3 C3          2.4009    0.0292   -0.0074 C.ar      1 <0>         0.1872
      4 C4          2.2914    1.2830   -0.5964 C.ar      1 <0>        -0.0678
      5 C5          1.0835    1.9558   -0.5661 C.ar      1 <0>        -0.0094
      6 C6         -0.0145    1.3807    0.0501 C.ar      1 <0>        -0.1152
      7 Cl1         0.9440    3.5220   -1.3018 Cl        1 <0>        -0.0400
      8 Cl2         3.6686    2.0035   -1.3697 Cl        1 <0>        -0.0431
      9 N1          3.6218   -0.6552   -0.0364 N.am      1 <0>        -0.6692
     10 C7          3.6431   -1.9995    0.0574 C.2       1 <0>         0.7030
     11 O1          2.6006   -2.6251    0.0642 O.2       1 <0>        -0.5250
     12 N2          4.8201   -2.6504    0.1438 N.am      1 <0>        -0.6309
     13 C8          4.8421   -4.0338    0.2404 C.2       1 <0>         0.2247
     14 C9          5.9465   -4.8312    0.3344 C.2       1 <0>        -0.2631
     15 C10         5.4177   -6.1356    0.4067 C.2       1 <0>         0.0560
     16 N3          4.1211   -6.0137    0.3530 N.2       1 <0>        -0.3619
     17 O2          3.7817   -4.8566    0.2661 O.3       1 <0>         0.1178
     18 C11         6.1983   -7.4194    0.5232 C.3       1 <0>        -0.0400
     19 C12         7.6732   -7.2110    0.9054 C.3       1 <0>        -0.1284
     20 C13         8.0081   -8.3270   -0.1010 C.3       1 <0>        -0.1414
     21 C14         6.7030   -7.9581   -0.8258 C.3       1 <0>        -0.1276
     22 H1         -0.7656   -0.3122    1.1168 H         1 <0>         0.1465
     23 H2          1.3793   -1.5181    1.0677 H         1 <0>         0.1636
     24 H3         -0.9582    1.9056    0.0690 H         1 <0>         0.1464
     25 H4          4.4523   -0.1618   -0.1241 H         1 <0>         0.4150
     26 H5          5.6519   -2.1513    0.1384 H         1 <0>         0.4318
     27 H6          6.9841   -4.5320    0.3492 H         1 <0>         0.1762
     28 H7          5.6916   -8.1692    1.1308 H         1 <0>         0.1092
     29 H8          8.0643   -6.2344    0.6204 H         1 <0>         0.0863
     30 H9          7.8975   -7.4726    1.9395 H         1 <0>         0.0747
     31 H10         7.9975   -9.3253    0.3365 H         1 <0>         0.0844
     32 H11         8.9046   -8.1325   -0.6898 H         1 <0>         0.0733
     33 H12         6.1451   -8.8220   -1.1873 H         1 <0>         0.0738
     34 H13         6.8283   -7.1861   -1.5850 H         1 <0>         0.0840
@<TRIPOS>BOND
     1    1    6 ar
     2    1    2 ar
     3    1   22 1
     4    2    3 ar
     5    2   23 1
     6    3    4 ar
     7    3    9 1
     8    4    5 ar
     9    4    8 1
    10    5    6 ar
    11    5    7 1
    12    6   24 1
    13    9   10 am
    14    9   25 1
    15   10   11 2
    16   10   12 am
    17   12   13 1
    18   12   26 1
    19   13   17 1
    20   13   14 2
    21   14   15 1
    22   14   27 1
    23   15   16 2
    24   15   18 1
    25   16   17 1
    26   18   21 1
    27   18   19 1
    28   18   28 1
    29   19   20 1
    30   19   29 1
    31   19   30 1
    32   20   21 1
    33   20   31 1
    34   20   32 1
    35   21   33 1
    36   21   34 1
@<TRIPOS>MOLECULE
ZINC03834008
   40    43     0     0     0
SMALL
USER_CHARGES

@<TRIPOS>ATOM
      1 C1         -0.2843    1.4749   -0.3977 C.3       1 <0>         0.0276
      2 O1         -0.8750    1.8567    0.8463 O.3       1 <0>        -0.3171
      3 C2         -2.1264    1.3924    1.1034 C.ar      1 <0>         0.1515
      4 C3         -2.7684    0.5835    0.1693 C.ar      1 <0>        -0.2202
      5 C4         -4.0260    0.1093    0.4134 C.ar      1 <0>        -0.0260
      6 C5         -4.6729    0.4362    1.6063 C.ar      1 <0>        -0.1227
      7 C6         -4.0320    1.2519    2.5552 C.ar      1 <0>         0.1443
      8 C7         -2.7491    1.7225    2.2927 C.ar      1 <0>        -0.1739
      9 N1         -4.8889    1.4111    3.6235 N.pl3     1 <0>        -0.5824
     10 H1         -4.6940    1.9304    4.4192 H         1 <0>         0.4184
     11 C8         -6.0598    0.7270    3.3972 C.2       1 <0>         0.1236
     12 C9         -5.9902    0.1038    2.1693 C.2       1 <0>        -0.1037
     13 C10        -7.0357   -0.7340    1.5412 C.ar      1 <0>        -0.0085
     14 C11        -8.2506   -0.1662    1.1552 C.ar      1 <0>        -0.1024
     15 C12        -9.2189   -0.9515    0.5644 C.ar      1 <0>        -0.1179
     16 C13        -8.9922   -2.3018    0.3656 C.ar      1 <0>        -0.1201
     17 C14        -7.7920   -2.8721    0.7512 C.ar      1 <0>        -0.1188
     18 C15        -6.8132   -2.0965    1.3374 C.ar      1 <0>        -0.1083
     19 C16        -7.2089    0.6690    4.3220 C.ar      1 <0>        -0.0441
     20 C17        -7.6905    1.8379    4.9161 C.ar      1 <0>        -0.0772
     21 C18        -8.7673    1.7781    5.7753 C.ar      1 <0>        -0.1514
     22 C19        -9.3653    0.5600    6.0577 C.ar      1 <0>         0.1085
     23 C20        -8.8884   -0.6038    5.4753 C.ar      1 <0>        -0.1496
     24 C21        -7.8153   -0.5558    4.6107 C.ar      1 <0>        -0.0556
     25 F1        -10.4167    0.5068    6.9044 F         1 <0>        -0.1359
     26 H2         -0.2094    0.3885   -0.4460 H         1 <0>         0.0569
     27 H3          0.7113    1.9116   -0.4764 H         1 <0>         0.1008
     28 H4         -0.9043    1.8332   -1.2195 H         1 <0>         0.0569
     29 H5         -2.2691    0.3298   -0.7542 H         1 <0>         0.1313
     30 H6         -4.5186   -0.5176   -0.3151 H         1 <0>         0.1272
     31 H7         -2.2430    2.3469    3.0140 H         1 <0>         0.1301
     32 H8         -8.4307    0.8867    1.3146 H         1 <0>         0.1192
     33 H9        -10.1577   -0.5123    0.2609 H         1 <0>         0.1218
     34 H10        -9.7553   -2.9133   -0.0929 H         1 <0>         0.1208
     35 H11        -7.6212   -3.9267    0.5932 H         1 <0>         0.1225
     36 H12        -5.8766   -2.5427    1.6376 H         1 <0>         0.1220
     37 H13        -7.2228    2.7871    4.7000 H         1 <0>         0.1332
     38 H14        -9.1431    2.6817    6.2321 H         1 <0>         0.1402
     39 H15        -9.3581   -1.5502    5.6993 H         1 <0>         0.1411
     40 H16        -7.4442   -1.4634    4.1580 H         1 <0>         0.1378
@<TRIPOS>BOND
     1    1    2 1
     2    1   26 1
     3    1   27 1
     4    1   28 1
     5    2    3 1
     6    3    8 ar
     7    3    4 ar
     8    4    5 ar
     9    4   29 1
    10    5    6 ar
    11    5   30 1
    12    6   12 1
    13    6    7 ar
    14    7    8 ar
    15    7    9 1
    16    8   31 1
    17    9   10 1
    18    9   11 1
    19   11   12 2
    20   11   19 1
    21   12   13 1
    22   13   18 ar
    23   13   14 ar
    24   14   15 ar
    25   14   32 1
    26   15   16 ar
    27   15   33 1
    28   16   17 ar
    29   16   34 1
    30   17   18 ar
    31   17   35 1
    32   18   36 1
    33   19   24 ar
    34   19   20 ar
    35   20   21 ar
    36   20   37 1
    37   21   22 ar
    38   21   38 1
    39   22   23 ar
    40   22   25 1
    41   23   24 ar
    42   23   39 1
    43   24   40 1
@<TRIPOS>MOLECULE
ZINC03834009
   44    47     0     0     0
SMALL
USER_CHARGES

@<TRIPOS>ATOM
      1 C1          2.3287    4.1768    0.3273 C.3       1 <0>         0.0690
      2 N1          1.1016    3.3834    0.4327 N.pl3     1 <0>        -0.5875
      3 C2         -0.1778    4.0452    0.6999 C.3       1 <0>         0.0486
      4 C3          1.1513    2.0030    0.2794 C.ar      1 <0>         0.4947
      5 C4          2.3887    1.3767    0.1295 C.ar      1 <0>        -0.2320
      6 C5          2.4409    0.0166   -0.0214 C.ar      1 <0>         0.1034
      7 C6          1.2384   -0.6970   -0.0199 C.ar      1 <0>        -0.1410
      8 C7          0.8998   -2.1209   -0.1521 C.2       1 <0>        -0.0463
      9 C8         -0.4742   -2.2024   -0.0708 C.2       1 <0>         0.1423
     10 N2         -0.9913   -0.9391    0.1001 N.pl3     1 <0>        -0.5524
     11 H1         -1.9354   -0.7332    0.1846 H         1 <0>         0.4328
     12 C9          0.0220   -0.0099    0.1344 C.ar      1 <0>         0.3059
     13 C10        -1.2641   -3.4465   -0.1534 C.ar      1 <0>        -0.0710
     14 C11        -0.8834   -4.5692    0.5856 C.ar      1 <0>        -0.0447
     15 C12        -1.6280   -5.7272    0.5080 C.ar      1 <0>        -0.1491
     16 C13        -2.7459   -5.7820   -0.3096 C.ar      1 <0>         0.1285
     17 C14        -3.1257   -4.6728   -1.0489 C.ar      1 <0>        -0.1515
     18 C15        -2.3920   -3.5077   -0.9754 C.ar      1 <0>        -0.0696
     19 F1         -3.4683   -6.9211   -0.3860 F         1 <0>        -0.1272
     20 C16         1.8456   -3.2440   -0.3359 C.ar      1 <0>        -0.0430
     21 C17         1.8465   -3.9715   -1.5267 C.ar      1 <0>        -0.0915
     22 C18         2.7340   -5.0145   -1.6937 C.ar      1 <0>        -0.1145
     23 C19         3.6147   -5.3464   -0.6796 C.ar      1 <0>        -0.1026
     24 C20         3.6153   -4.6324    0.5055 C.ar      1 <0>        -0.1159
     25 C21         2.7364   -3.5838    0.6830 C.ar      1 <0>        -0.1021
     26 H2          2.4772    4.4802   -0.7091 H         1 <0>         0.0845
     27 H3          2.2438    5.0627    0.9566 H         1 <0>         0.0993
     28 H4          3.1780    3.5778    0.6558 H         1 <0>         0.0936
     29 H5         -0.5981    3.6616    1.6296 H         1 <0>         0.0800
     30 H6         -0.0194    5.1199    0.7889 H         1 <0>         0.1147
     31 H7         -0.8679    3.8463   -0.1201 H         1 <0>         0.0768
     32 H8          3.2980    1.9595    0.1332 H         1 <0>         0.1850
     33 H9          3.3865   -0.4919   -0.1383 H         1 <0>         0.1735
     34 H10        -0.0100   -4.5290    1.2195 H         1 <0>         0.1411
     35 H11        -1.3370   -6.5945    1.0820 H         1 <0>         0.1478
     36 H12        -3.9979   -4.7214   -1.6840 H         1 <0>         0.1460
     37 H13        -2.6885   -2.6443   -1.5524 H         1 <0>         0.1333
     38 H14         1.1567   -3.7161   -2.3175 H         1 <0>         0.1230
     39 H15         2.7385   -5.5757   -2.6164 H         1 <0>         0.1288
     40 H16         4.3050   -6.1661   -0.8137 H         1 <0>         0.1281
     41 H17         4.3050   -4.8966    1.2935 H         1 <0>         0.1294
     42 H18         2.7381   -3.0270    1.6084 H         1 <0>         0.1245
     43 N3         -0.0428    1.3493    0.2865 N.ar      1 <0>        -0.5481
     44 H19        -0.9354    1.8441    0.3987 H         1 <0>         0.4556
@<TRIPOS>BOND
     1    1    2 1
     2    1   26 1
     3    1   27 1
     4    1   28 1
     5    2    3 1
     6    2    4 1
     7    3   29 1
     8    3   30 1
     9    3   31 1
    10    4    5 ar
    11    4   43 ar
    12    5    6 ar
    13    5   32 1
    14    6    7 ar
    15    6   33 1
    16    7   12 ar
    17    7    8 1
    18    8    9 2
    19    8   20 1
    20    9   10 1
    21    9   13 1
    22   10   11 1
    23   10   12 1
    24   12   43 ar
    25   13   18 ar
    26   13   14 ar
    27   14   15 ar
    28   14   34 1
    29   15   16 ar
    30   15   35 1
    31   16   17 ar
    32   16   19 1
    33   17   18 ar
    34   17   36 1
    35   18   37 1
    36   20   25 ar
    37   20   21 ar
    38   21   22 ar
    39   21   38 1
    40   22   23 ar
    41   22   39 1
    42   23   24 ar
    43   23   40 1
    44   24   25 ar
    45   24   41 1
    46   25   42 1
    47   43   44 1
@<TRIPOS>MOLECULE
ZINC03834010
   43    44     0     0     0
SMALL
USER_CHARGES

@<TRIPOS>ATOM
      1 C1          5.2693    5.6355    1.3147 C.3       1 <0>        -0.1372
      2 C2          5.4856    4.9347   -0.0281 C.3       1 <0>         0.0125
      3 C3          6.9828    4.8757   -0.3373 C.3       1 <0>        -0.1371
      4 C4          4.7672    5.7140   -1.1316 C.3       1 <0>        -0.1381
      5 C5          4.9313    3.5350    0.0407 C.2       1 <0>         0.1024
      6 C6          3.5777    3.1883    0.0079 C.2       1 <0>        -0.2651
      7 C7          3.4927    1.8326    0.0926 C.2       1 <0>         0.3145
      8 N1          4.7528    1.3492    0.1807 N.pl3     1 <0>        -0.3916
      9 N2          5.6350    2.4365    0.1410 N.2       1 <0>        -0.2803
     10 C8          5.1287   -0.0621    0.2951 C.3       1 <0>         0.0991
     11 N3          2.3190    1.0789    0.0943 N.am      1 <0>        -0.6551
     12 C9          1.1230    1.6940    0.0057 C.2       1 <0>         0.7151
     13 O1          1.0673    2.9059   -0.0758 O.2       1 <0>        -0.5335
     14 N4         -0.0111    0.9658    0.0074 N.am      1 <0>        -0.6789
     15 C10        -1.2546    1.6076    0.0071 C.ar      1 <0>         0.1933
     16 C11        -2.3251    1.0507    0.6945 C.ar      1 <0>        -0.1452
     17 C12        -3.5497    1.6893    0.6967 C.ar      1 <0>        -0.0488
     18 C13        -3.7136    2.8760    0.0059 C.ar      1 <0>        -0.1980
     19 C14        -2.6510    3.4303   -0.6838 C.ar      1 <0>        -0.0482
     20 C15        -1.4223    2.7996   -0.6852 C.ar      1 <0>        -0.1207
     21 C16        -5.0529    3.5668    0.0053 C.3       1 <0>         0.5096
     22 F1         -5.8151    3.1054   -1.0733 F         1 <0>        -0.1764
     23 F2         -5.7219    3.2883    1.2020 F         1 <0>        -0.1772
     24 F3         -4.8651    4.9480   -0.1135 F         1 <0>        -0.1760
     25 H1          5.7811    5.0803    2.1008 H         1 <0>         0.0556
     26 H2          5.6702    6.6478    1.2649 H         1 <0>         0.0644
     27 H3          4.2027    5.6775    1.5350 H         1 <0>         0.0606
     28 H4          7.1369    4.3765   -1.2940 H         1 <0>         0.0560
     29 H5          7.3837    5.8881   -0.3871 H         1 <0>         0.0592
     30 H6          7.4946    4.3205    0.4488 H         1 <0>         0.0604
     31 H7          3.7005    5.7560   -0.9113 H         1 <0>         0.0628
     32 H8          5.1681    6.7264   -1.1813 H         1 <0>         0.0635
     33 H9          4.9213    5.2148   -2.0882 H         1 <0>         0.0561
     34 H10         2.7471    3.8741   -0.0710 H         1 <0>         0.1745
     35 H11         5.2662   -0.4834   -0.7007 H         1 <0>         0.0754
     36 H12         6.0591   -0.1459    0.8567 H         1 <0>         0.0958
     37 H13         4.3405   -0.6071    0.8145 H         1 <0>         0.0782
     38 H14         2.3634    0.1121    0.1593 H         1 <0>         0.4084
     39 H15         0.0347   -0.0031    0.0047 H         1 <0>         0.4130
     40 H16        -2.1990    0.1215    1.2302 H         1 <0>         0.1392
     41 H17        -4.3814    1.2592    1.2350 H         1 <0>         0.1420
     42 H18        -2.7822    4.3572   -1.2223 H         1 <0>         0.1416
     43 H19        -0.5927    3.2333   -1.2238 H         1 <0>         0.1542
@<TRIPOS>BOND
     1    1    2 1
     2    1   25 1
     3    1   26 1
     4    1   27 1
     5    2    3 1
     6    2    4 1
     7    2    5 1
     8    3   28 1
     9    3   29 1
    10    3   30 1
    11    4   31 1
    12    4   32 1
    13    4   33 1
    14    5    9 2
    15    5    6 1
    16    6    7 2
    17    6   34 1
    18    7    8 1
    19    7   11 1
    20    8    9 1
    21    8   10 1
    22   10   35 1
    23   10   36 1
    24   10   37 1
    25   11   12 am
    26   11   38 1
    27   12   13 2
    28   12   14 am
    29   14   15 1
    30   14   39 1
    31   15   20 ar
    32   15   16 ar
    33   16   17 ar
    34   16   40 1
    35   17   18 ar
    36   17   41 1
    37   18   19 ar
    38   18   21 1
    39   19   20 ar
    40   19   42 1
    41   20   43 1
    42   21   22 1
    43   21   23 1
    44   21   24 1
@<TRIPOS>MOLECULE
ZINC03834011
   44    45     0     0     0
SMALL
USER_CHARGES

@<TRIPOS>ATOM
      1 C1         -4.4571   -2.6399    1.6510 C.3       1 <0>        -0.1376
      2 C2         -4.9091   -1.1782    1.6496 C.3       1 <0>         0.0130
      3 C3         -4.8433   -0.6226    3.0736 C.3       1 <0>        -0.1370
      4 C4         -6.3466   -1.0893    1.1334 C.3       1 <0>        -0.1374
      5 C5         -4.0031   -0.3732    0.7539 C.2       1 <0>         0.1080
      6 C6         -4.0152   -0.3825   -0.6436 C.2       1 <0>        -0.2600
      7 C7         -3.0528    0.4783   -1.0744 C.2       1 <0>         0.3264
      8 N1         -2.4535    1.0012    0.0195 N.pl3     1 <0>        -0.3770
      9 N2         -3.0701    0.4535    1.1517 N.2       1 <0>        -0.2709
     10 C8         -1.3575    1.9733    0.0202 C.3       1 <0>         0.1131
     11 C9         -0.0389    1.2437    0.0190 C.2       1 <0>         0.4932
     12 O1         -0.0168    0.0311    0.0178 O.2       1 <0>        -0.5141
     13 N3          1.1158    1.9387    0.0138 N.am      1 <0>        -0.8512
     14 N4         -2.7394    0.7663   -2.4028 N.am      1 <0>        -0.6539
     15 C10        -3.4211    0.1696   -3.4006 C.2       1 <0>         0.7199
     16 O2         -4.3094   -0.6198   -3.1429 O.2       1 <0>        -0.5329
     17 N5         -3.1183    0.4479   -4.6841 N.am      1 <0>        -0.6748
     18 C11        -3.7608   -0.2405   -5.7200 C.ar      1 <0>         0.1851
     19 C12        -5.0889   -0.6221   -5.5828 C.ar      1 <0>        -0.1036
     20 C13        -5.7209   -1.3008   -6.6064 C.ar      1 <0>        -0.0801
     21 C14        -5.0331   -1.6015   -7.7677 C.ar      1 <0>        -0.1116
     22 C15        -3.7096   -1.2233   -7.9088 C.ar      1 <0>        -0.0129
     23 C16        -3.0727   -0.5383   -6.8895 C.ar      1 <0>        -0.0629
     24 Cl1        -1.4142   -0.0577   -7.0688 Cl        1 <0>        -0.0438
     25 Cl2        -2.8500   -1.6023   -9.3687 Cl        1 <0>        -0.0411
     26 H1         -3.4330   -2.7032    2.0188 H         1 <0>         0.0565
     27 H2         -5.1124   -3.2222    2.2988 H         1 <0>         0.0640
     28 H3         -4.5040   -3.0357    0.6365 H         1 <0>         0.0608
     29 H4         -5.1653    0.4188    3.0726 H         1 <0>         0.0562
     30 H5         -5.4986   -1.2049    3.7214 H         1 <0>         0.0590
     31 H6         -3.8191   -0.6859    3.4413 H         1 <0>         0.0603
     32 H7         -6.3935   -1.4852    0.1188 H         1 <0>         0.0628
     33 H8         -7.0019   -1.6716    1.7812 H         1 <0>         0.0631
     34 H9         -6.6686   -0.0480    1.1323 H         1 <0>         0.0563
     35 H10        -4.6737   -0.9657   -1.2702 H         1 <0>         0.1759
     36 H11        -1.4264    2.5979    0.9108 H         1 <0>         0.1329
     37 H12        -1.4269    2.5997   -0.8692 H         1 <0>         0.1147
     38 H13         1.9645    1.4691    0.0090 H         1 <0>         0.4081
     39 H14         1.0981    2.9086    0.0147 H         1 <0>         0.4037
     40 H15        -2.0308    1.3960   -2.6083 H         1 <0>         0.4057
     41 H16        -2.4551    1.1251   -4.8901 H         1 <0>         0.4120
     42 H17        -5.6272   -0.3886   -4.6762 H         1 <0>         0.1592
     43 H18        -6.7539   -1.5974   -6.4994 H         1 <0>         0.1463
     44 H19        -5.5298   -2.1329   -8.5659 H         1 <0>         0.1462
@<TRIPOS>BOND
     1    1    2 1
     2    1   26 1
     3    1   27 1
     4    1   28 1
     5    2    3 1
     6    2    4 1
     7    2    5 1
     8    3   29 1
     9    3   30 1
    10    3   31 1
    11    4   32 1
    12    4   33 1
    13    4   34 1
    14    5    9 2
    15    5    6 1
    16    6    7 2
    17    6   35 1
    18    7    8 1
    19    7   14 1
    20    8    9 1
    21    8   10 1
    22   10   11 1
    23   10   36 1
    24   10   37 1
    25   11   12 2
    26   11   13 am
    27   13   38 1
    28   13   39 1
    29   14   15 am
    30   14   40 1
    31   15   16 2
    32   15   17 am
    33   17   18 1
    34   17   41 1
    35   18   23 ar
    36   18   19 ar
    37   19   20 ar
    38   19   42 1
    39   20   21 ar
    40   20   43 1
    41   21   22 ar
    42   21   44 1
    43   22   23 ar
    44   22   25 1
    45   23   24 1
@<TRIPOS>MOLECULE
ZINC03834012
   42    43     0     0     0
SMALL
USER_CHARGES

@<TRIPOS>ATOM
      1 C1          2.6788   -4.0525    0.7879 C.3       1 <0>        -0.1167
      2 C2          2.5430   -2.6500    0.2535 C.ar      1 <0>        -0.0654
      3 C3          3.6211   -2.0364   -0.3580 C.ar      1 <0>        -0.1334
      4 C4          3.5006   -0.7498   -0.8497 C.ar      1 <0>        -0.0987
      5 C5          2.3020   -0.0733   -0.7318 C.ar      1 <0>        -0.1316
      6 C6          1.2177   -0.6867   -0.1189 C.ar      1 <0>         0.1644
      7 C7          1.3437   -1.9771    0.3791 C.ar      1 <0>        -0.1167
      8 C8          0.1713   -2.6442    1.0510 C.3       1 <0>        -0.1176
      9 N1          0.0021   -0.0041    0.0020 N.am      1 <0>        -0.6711
     10 C9         -0.0166    1.3436    0.0057 C.2       1 <0>         0.7152
     11 O1          1.0278    1.9660    0.0071 O.2       1 <0>        -0.5443
     12 N2         -1.1930    2.0012    0.0022 N.am      1 <0>        -0.6388
     13 C10        -1.2123    3.3959    0.0060 C.2       1 <0>         0.2617
     14 C11        -0.0883    4.2642    0.0135 C.2       1 <0>        -0.2192
     15 C12        -0.6326    5.5022    0.0137 C.2       1 <0>        -0.0065
     16 O2         -1.9631    5.3361    0.0067 O.3       1 <0>         0.1020
     17 N3         -2.2684    4.1662   -0.0024 N.2       1 <0>        -0.3907
     18 C13         0.1112    6.8129    0.0196 C.3       1 <0>         0.0149
     19 C14         0.9957    6.9030   -1.2256 C.3       1 <0>        -0.1417
     20 C15        -0.8916    7.9684    0.0176 C.3       1 <0>        -0.1485
     21 C16         0.9848    6.8979    1.2728 C.3       1 <0>        -0.1419
     22 H1          3.0130   -4.0154    1.8248 H         1 <0>         0.0722
     23 H2          1.7138   -4.5565    0.7350 H         1 <0>         0.0689
     24 H3          3.4079   -4.5999    0.1906 H         1 <0>         0.0688
     25 H4          4.5593   -2.5632   -0.4514 H         1 <0>         0.1237
     26 H5          4.3443   -0.2733   -1.3267 H         1 <0>         0.1265
     27 H6          2.2084    0.9316   -1.1164 H         1 <0>         0.1466
     28 H7         -0.4148   -3.1841    0.3073 H         1 <0>         0.0719
     29 H8          0.5339   -3.3428    1.8050 H         1 <0>         0.0759
     30 H9         -0.4533   -1.8881    1.5267 H         1 <0>         0.0609
     31 H10        -0.8271   -0.5008    0.0832 H         1 <0>         0.4104
     32 H11        -2.0262    1.5047   -0.0030 H         1 <0>         0.4167
     33 H12         0.9582    3.9976    0.0178 H         1 <0>         0.1909
     34 H13         0.3733    6.8424   -2.1184 H         1 <0>         0.0612
     35 H14         1.5336    7.8510   -1.2213 H         1 <0>         0.0723
     36 H15         1.7101    6.0798   -1.2242 H         1 <0>         0.0639
     37 H16        -1.5217    7.9042    0.9047 H         1 <0>         0.0637
     38 H17        -0.3536    8.9164    0.0219 H         1 <0>         0.0691
     39 H18        -1.5139    7.9078   -0.8753 H         1 <0>         0.0638
     40 H19         1.6992    6.0747    1.2743 H         1 <0>         0.0639
     41 H20         1.5227    7.8459    1.2771 H         1 <0>         0.0722
     42 H21         0.3547    6.8337    2.1599 H         1 <0>         0.0612
@<TRIPOS>BOND
     1    1    2 1
     2    1   22 1
     3    1   23 1
     4    1   24 1
     5    2    7 ar
     6    2    3 ar
     7    3    4 ar
     8    3   25 1
     9    4    5 ar
    10    4   26 1
    11    5    6 ar
    12    5   27 1
    13    6    7 ar
    14    6    9 1
    15    7    8 1
    16    8   28 1
    17    8   29 1
    18    8   30 1
    19    9   10 am
    20    9   31 1
    21   10   11 2
    22   10   12 am
    23   12   13 1
    24   12   32 1
    25   13   17 2
    26   13   14 1
    27   14   15 2
    28   14   33 1
    29   15   16 1
    30   15   18 1
    31   16   17 1
    32   18   19 1
    33   18   20 1
    34   18   21 1
    35   19   34 1
    36   19   35 1
    37   19   36 1
    38   20   37 1
    39   20   38 1
    40   20   39 1
    41   21   40 1
    42   21   41 1
    43   21   42 1
@<TRIPOS>MOLECULE
ZINC03834013
   42    43     0     0     0
SMALL
USER_CHARGES

@<TRIPOS>ATOM
      1 C1          2.6785   -4.0528    0.7871 C.3       1 <0>        -0.1165
      2 C2          2.5429   -2.6501    0.2531 C.ar      1 <0>        -0.0661
      3 C3          3.6211   -2.0364   -0.3580 C.ar      1 <0>        -0.1324
      4 C4          3.5006   -0.7498   -0.8497 C.ar      1 <0>        -0.0980
      5 C5          2.3020   -0.0732   -0.7318 C.ar      1 <0>        -0.1310
      6 C6          1.2176   -0.6867   -0.1189 C.ar      1 <0>         0.1620
      7 C7          1.3437   -1.9771    0.3791 C.ar      1 <0>        -0.1163
      8 C8          0.1712   -2.6442    1.0510 C.3       1 <0>        -0.1170
      9 N1          0.0021   -0.0041    0.0020 N.am      1 <0>        -0.6700
     10 C9         -0.0166    1.3436    0.0057 C.2       1 <0>         0.6973
     11 O1          1.0278    1.9660    0.0071 O.2       1 <0>        -0.5273
     12 N2         -1.1930    2.0012    0.0022 N.am      1 <0>        -0.6342
     13 C10        -1.2122    3.3881    0.0060 C.2       1 <0>         0.2268
     14 C11        -2.3156    4.1923    0.0032 C.2       1 <0>        -0.2667
     15 C12        -1.7838    5.4975    0.0093 C.2       1 <0>         0.0552
     16 N3         -0.4867    5.3696    0.0148 N.2       1 <0>        -0.3598
     17 O2         -0.1496    4.2085    0.0190 O.3       1 <0>         0.1159
     18 C13        -2.5622    6.7879    0.0101 C.3       1 <0>         0.0092
     19 C14        -3.1509    7.0275    1.4018 C.3       1 <0>        -0.1386
     20 C15        -1.6311    7.9454   -0.3561 C.3       1 <0>        -0.1409
     21 C16        -3.6950    6.7008   -1.0147 C.3       1 <0>        -0.1387
     22 H1          3.0125   -4.0161    1.8240 H         1 <0>         0.0721
     23 H2          1.7135   -4.5568    0.7338 H         1 <0>         0.0688
     24 H3          3.4077   -4.6001    0.1897 H         1 <0>         0.0687
     25 H4          4.5594   -2.5631   -0.4510 H         1 <0>         0.1240
     26 H5          4.3443   -0.2733   -1.3266 H         1 <0>         0.1271
     27 H6          2.2084    0.9316   -1.1164 H         1 <0>         0.1467
     28 H7         -0.4148   -3.1841    0.3073 H         1 <0>         0.0718
     29 H8          0.5339   -3.3428    1.8050 H         1 <0>         0.0759
     30 H9         -0.4533   -1.8881    1.5267 H         1 <0>         0.0608
     31 H10        -0.8271   -0.5008    0.0832 H         1 <0>         0.4104
     32 H11        -2.0262    1.5047   -0.0030 H         1 <0>         0.4296
     33 H12        -3.3544    3.8970   -0.0020 H         1 <0>         0.1745
     34 H13        -2.3439    7.0896    2.1319 H         1 <0>         0.0580
     35 H14        -3.7139    7.9609    1.4024 H         1 <0>         0.0677
     36 H15        -3.8142    6.2029    1.6627 H         1 <0>         0.0601
     37 H16        -1.2118    7.7747   -1.3476 H         1 <0>         0.0583
     38 H17        -2.1942    8.8788   -0.3555 H         1 <0>         0.0639
     39 H18        -0.8241    8.0075    0.3740 H         1 <0>         0.0621
     40 H19        -4.3583    5.8762   -0.7538 H         1 <0>         0.0605
     41 H20        -4.2580    7.6341   -1.0141 H         1 <0>         0.0672
     42 H21        -3.2757    6.5301   -2.0062 H         1 <0>         0.0587
@<TRIPOS>BOND
     1    1    2 1
     2    1   22 1
     3    1   23 1
     4    1   24 1
     5    2    7 ar
     6    2    3 ar
     7    3    4 ar
     8    3   25 1
     9    4    5 ar
    10    4   26 1
    11    5    6 ar
    12    5   27 1
    13    6    7 ar
    14    6    9 1
    15    7    8 1
    16    8   28 1
    17    8   29 1
    18    8   30 1
    19    9   10 am
    20    9   31 1
    21   10   11 2
    22   10   12 am
    23   12   13 1
    24   12   32 1
    25   13   17 1
    26   13   14 2
    27   14   15 1
    28   14   33 1
    29   15   16 2
    30   15   18 1
    31   16   17 1
    32   18   19 1
    33   18   20 1
    34   18   21 1
    35   19   34 1
    36   19   35 1
    37   19   36 1
    38   20   37 1
    39   20   38 1
    40   20   39 1
    41   21   40 1
    42   21   41 1
    43   21   42 1
@<TRIPOS>MOLECULE
ZINC03834014
   36    37     0     0     0
SMALL
USER_CHARGES

@<TRIPOS>ATOM
      1 C1          1.4549   -2.4335   -1.2919 C.3       1 <0>        -0.1420
      2 C2          1.9205   -1.6934   -0.0365 C.3       1 <0>         0.0146
      3 C3          3.4467   -1.5852   -0.0447 C.3       1 <0>        -0.1487
      4 C4          1.4706   -2.4641    1.2063 C.3       1 <0>        -0.1418
      5 C5          1.3192   -0.3117   -0.0158 C.2       1 <0>        -0.0048
      6 C6          0.0024   -0.0036   -0.0037 C.2       1 <0>        -0.2194
      7 C7         -0.0170    1.4164    0.0137 C.2       1 <0>         0.2598
      8 N1          1.2331    1.7986    0.0106 N.2       1 <0>        -0.3886
      9 O1          1.9852    0.8520   -0.0057 O.3       1 <0>         0.1032
     10 N2         -1.1438    2.2384    0.0258 N.am      1 <0>        -0.6357
     11 C8         -2.3761    1.6926    0.0212 C.2       1 <0>         0.7176
     12 O2         -2.5056    0.4838    0.0066 O.2       1 <0>        -0.5435
     13 N3         -3.4650    2.4869    0.0328 N.am      1 <0>        -0.6739
     14 C9         -4.7423    1.9246   -0.0695 C.ar      1 <0>         0.1738
     15 C10        -5.7462    2.5984   -0.7523 C.ar      1 <0>        -0.1012
     16 C11        -7.0053    2.0381   -0.8568 C.ar      1 <0>        -0.0680
     17 C12        -7.2690    0.8123   -0.2720 C.ar      1 <0>        -0.0750
     18 C13        -6.2721    0.1414    0.4139 C.ar      1 <0>        -0.0682
     19 C14        -5.0097    0.6944    0.5165 C.ar      1 <0>        -0.0769
     20 Br1        -6.6371   -1.5341    1.2110 Br        1 <0>        -0.0254
     21 Br2        -8.3710    2.9514   -1.7931 Br        1 <0>        -0.0262
     22 H1          1.7754   -1.8845   -2.1773 H         1 <0>         0.0613
     23 H2          1.8899   -3.4329   -1.3069 H         1 <0>         0.0726
     24 H3          0.3676   -2.5106   -1.2860 H         1 <0>         0.0640
     25 H4          3.7784   -1.0579    0.8497 H         1 <0>         0.0639
     26 H5          3.8817   -2.5846   -0.0597 H         1 <0>         0.0694
     27 H6          3.7672   -1.0362   -0.9301 H         1 <0>         0.0638
     28 H7          0.3833   -2.5411    1.2122 H         1 <0>         0.0641
     29 H8          1.9056   -3.4634    1.1914 H         1 <0>         0.0725
     30 H9          1.8023   -1.9368    2.1007 H         1 <0>         0.0614
     31 H10        -0.8393   -0.6804   -0.0070 H         1 <0>         0.1913
     32 H11        -1.0406    3.2028    0.0375 H         1 <0>         0.4183
     33 H12        -3.3632    3.4482    0.1121 H         1 <0>         0.4161
     34 H13        -5.5422    3.5576   -1.2049 H         1 <0>         0.1450
     35 H14        -8.2547    0.3781   -0.3512 H         1 <0>         0.1468
     36 H15        -4.2318    0.1702    1.0517 H         1 <0>         0.1599
@<TRIPOS>BOND
     1    1    2 1
     2    1   22 1
     3    1   23 1
     4    1   24 1
     5    2    3 1
     6    2    4 1
     7    2    5 1
     8    3   25 1
     9    3   26 1
    10    3   27 1
    11    4   28 1
    12    4   29 1
    13    4   30 1
    14    5    9 1
    15    5    6 2
    16    6    7 1
    17    6   31 1
    18    7    8 2
    19    7   10 1
    20    8    9 1
    21   10   11 am
    22   10   32 1
    23   11   12 2
    24   11   13 am
    25   13   14 1
    26   13   33 1
    27   14   19 ar
    28   14   15 ar
    29   15   16 ar
    30   15   34 1
    31   16   17 ar
    32   16   21 1
    33   17   18 ar
    34   17   35 1
    35   18   19 ar
    36   18   20 1
    37   19   36 1
@<TRIPOS>MOLECULE
ZINC03834015
   38    41     0     0     0
SMALL
USER_CHARGES

@<TRIPOS>ATOM
      1 C1         -0.0169    1.3929    0.0097 C.ar      1 <0>        -0.0749
      2 C2          1.1693    2.0957    0.0021 C.ar      1 <0>        -0.1633
      3 C3          2.3789    1.4191   -0.0135 C.ar      1 <0>         0.1143
      4 C4          2.4041    0.0332   -0.0207 C.ar      1 <0>        -0.1631
      5 C5          1.2245   -0.6805   -0.0133 C.ar      1 <0>        -0.0003
      6 C6          0.0021   -0.0041    0.0020 C.ar      1 <0>        -0.0522
      7 C7         -1.2639   -0.7621    0.0105 C.2       1 <0>         0.1371
      8 C8         -1.5484   -1.8707    0.7969 C.2       1 <0>        -0.1314
      9 C9         -2.8658   -2.2718    0.4855 C.2       1 <0>        -0.1322
     10 C10        -3.3387   -1.4234   -0.4672 C.2       1 <0>         0.0569
     11 N1         -2.3642   -0.5016   -0.7590 N.pl3     1 <0>        -0.5372
     12 H1         -2.4432    0.2174   -1.4053 H         1 <0>         0.4204
     13 C11        -4.6798   -1.4842   -1.0857 C.ar      1 <0>        -0.0106
     14 C12        -5.0486   -0.5475   -2.0528 C.ar      1 <0>        -0.1108
     15 C13        -6.2996   -0.6126   -2.6302 C.ar      1 <0>        -0.0998
     16 C14        -7.1931   -1.5976   -2.2439 C.ar      1 <0>        -0.0371
     17 C15        -6.8349   -2.5264   -1.2813 C.ar      1 <0>        -0.0997
     18 C16        -5.5847   -2.4751   -0.7009 C.ar      1 <0>        -0.0904
     19 Cl1        -8.7684   -1.6686   -2.9699 Cl        1 <0>        -0.0644
     20 C17        -0.6436   -2.5086    1.7778 C.ar      1 <0>         0.2572
     21 C18        -1.0624   -3.6245    2.5120 C.ar      1 <0>        -0.2216
     22 C19        -0.1770   -4.1860    3.4117 C.ar      1 <0>         0.1521
     23 N2          1.0258   -3.6486    3.5570 N.ar      1 <0>        -0.5311
     24 C20         1.3896   -2.5942    2.8546 C.ar      1 <0>         0.3003
     25 N3          0.5828   -2.0275    1.9818 N.ar      1 <0>        -0.5205
     26 F1          3.5380    2.1131   -0.0213 F         1 <0>        -0.1380
     27 H2         -0.9588    1.9213    0.0170 H         1 <0>         0.1277
     28 H3          1.1559    3.1757    0.0081 H         1 <0>         0.1368
     29 H4          3.3496   -0.4886   -0.0325 H         1 <0>         0.1379
     30 H5          1.2453   -1.7603   -0.0196 H         1 <0>         0.1366
     31 H6         -3.3994   -3.1037    0.9208 H         1 <0>         0.1503
     32 H7         -4.3543    0.2240   -2.3514 H         1 <0>         0.1257
     33 H8         -6.5845    0.1088   -3.3817 H         1 <0>         0.1373
     34 H9         -7.5360   -3.2922   -0.9842 H         1 <0>         0.1399
     35 H10        -5.3066   -3.1998    0.0501 H         1 <0>         0.1395
     36 H11        -2.0507   -4.0382    2.3757 H         1 <0>         0.1465
     37 H12        -0.4633   -5.0498    3.9934 H         1 <0>         0.1679
     38 H13         2.3777   -2.1830    2.9993 H         1 <0>         0.1943
@<TRIPOS>BOND
     1    1    6 ar
     2    1    2 ar
     3    1   27 1
     4    2    3 ar
     5    2   28 1
     6    3    4 ar
     7    3   26 1
     8    4    5 ar
     9    4   29 1
    10    5    6 ar
    11    5   30 1
    12    6    7 1
    13    7   11 1
    14    7    8 2
    15    8    9 1
    16    8   20 1
    17    9   10 2
    18    9   31 1
    19   10   11 1
    20   10   13 1
    21   11   12 1
    22   13   18 ar
    23   13   14 ar
    24   14   15 ar
    25   14   32 1
    26   15   16 ar
    27   15   33 1
    28   16   17 ar
    29   16   19 1
    30   17   18 ar
    31   17   34 1
    32   18   35 1
    33   20   25 ar
    34   20   21 ar
    35   21   22 ar
    36   21   36 1
    37   22   23 ar
    38   22   37 1
    39   23   24 ar
    40   24   25 ar
    41   24   38 1
@<TRIPOS>MOLECULE
ZINC03834016
   36    37     0     0     0
SMALL
USER_CHARGES

@<TRIPOS>ATOM
      1 C1          5.6164    9.5941    2.0559 C.3       1 <0>        -0.1386
      2 C2          5.7440    9.0834    0.6193 C.3       1 <0>         0.0090
      3 C3          7.2224    8.8874    0.2772 C.3       1 <0>        -0.1410
      4 C4          5.1292   10.1035   -0.3411 C.3       1 <0>        -0.1388
      5 C5          5.0193    7.7688    0.4872 C.2       1 <0>         0.0552
      6 C6          3.6243    7.5778    0.4254 C.2       1 <0>        -0.2654
      7 C7          3.4828    6.2246    0.3102 C.2       1 <0>         0.2252
      8 O1          4.7249    5.7154    0.3156 O.3       1 <0>         0.1162
      9 N1          5.5596    6.5852    0.4084 N.2       1 <0>        -0.3593
     10 N2          2.2937    5.5174    0.2131 N.am      1 <0>        -0.6331
     11 C8          2.3155    4.1742    0.1041 C.2       1 <0>         0.6982
     12 O2          3.3775    3.5825    0.0910 O.2       1 <0>        -0.5289
     13 N3          1.1600    3.4869    0.0097 N.am      1 <0>        -0.6739
     14 C9          1.1762    2.0865    0.0087 C.ar      1 <0>         0.1479
     15 C10         2.1334    1.4019    0.7455 C.ar      1 <0>        -0.0896
     16 C11         2.1477    0.0208    0.7431 C.ar      1 <0>        -0.1311
     17 C12         1.2084   -0.6811    0.0066 C.ar      1 <0>         0.0871
     18 C13         0.2530   -0.0001   -0.7289 C.ar      1 <0>        -0.1325
     19 C14         0.2355    1.3809   -0.7296 C.ar      1 <0>        -0.1130
     20 F1          1.2244   -2.0320    0.0052 F         1 <0>        -0.1376
     21 H1          6.0544    8.8673    2.7401 H         1 <0>         0.0581
     22 H2          6.1406   10.5449    2.1514 H         1 <0>         0.0678
     23 H3          4.5632    9.7337    2.2996 H         1 <0>         0.0602
     24 H4          7.3133    8.5236   -0.7463 H         1 <0>         0.0583
     25 H5          7.7466    9.8383    0.3727 H         1 <0>         0.0640
     26 H6          7.6604    8.1607    0.9613 H         1 <0>         0.0622
     27 H7          4.0760   10.2431   -0.0974 H         1 <0>         0.0605
     28 H8          5.6534   11.0544   -0.2456 H         1 <0>         0.0674
     29 H9          5.2201    9.7397   -1.3646 H         1 <0>         0.0587
     30 H10         2.8477    8.3276    0.4604 H         1 <0>         0.1748
     31 H11         1.4463    5.9894    0.2235 H         1 <0>         0.4306
     32 H12         0.3171    3.9622   -0.0575 H         1 <0>         0.4131
     33 H13         2.8634    1.9489    1.3236 H         1 <0>         0.1465
     34 H14         2.8923   -0.5121    1.3159 H         1 <0>         0.1416
     35 H15        -0.4788   -0.5494   -1.3027 H         1 <0>         0.1422
     36 H16        -0.5098    1.9116   -1.3033 H         1 <0>         0.1381
@<TRIPOS>BOND
     1    1    2 1
     2    1   21 1
     3    1   22 1
     4    1   23 1
     5    2    3 1
     6    2    4 1
     7    2    5 1
     8    3   24 1
     9    3   25 1
    10    3   26 1
    11    4   27 1
    12    4   28 1
    13    4   29 1
    14    5    9 2
    15    5    6 1
    16    6    7 2
    17    6   30 1
    18    7    8 1
    19    7   10 1
    20    8    9 1
    21   10   11 am
    22   10   31 1
    23   11   12 2
    24   11   13 am
    25   13   14 1
    26   13   32 1
    27   14   19 ar
    28   14   15 ar
    29   15   16 ar
    30   15   33 1
    31   16   17 ar
    32   16   34 1
    33   17   18 ar
    34   17   20 1
    35   18   19 ar
    36   18   35 1
    37   19   36 1
@<TRIPOS>MOLECULE
ZINC03834017
   50    52     0     0     0
SMALL
USER_CHARGES

@<TRIPOS>ATOM
      1 C1          2.8849  -11.9737   -0.9921 C.3       1 <0>        -0.1371
      2 C2          3.4328  -11.6710    0.4040 C.3       1 <0>         0.0127
      3 C3          4.2697  -12.8555    0.8914 C.3       1 <0>        -0.1368
      4 C4          2.2688  -11.4376    1.3692 C.3       1 <0>        -0.1380
      5 C5          4.2947  -10.4360    0.3486 C.2       1 <0>         0.1021
      6 C6          3.8341   -9.1209    0.2401 C.2       1 <0>        -0.2664
      7 C7          4.9193   -8.2996    0.2215 C.2       1 <0>         0.3166
      8 N1          6.0219   -9.0779    0.3095 N.pl3     1 <0>        -0.3924
      9 N2          5.6021  -10.4115    0.3937 N.2       1 <0>        -0.2820
     10 C8          7.4098   -8.6088    0.3185 C.3       1 <0>         0.0996
     11 N3          4.8983   -6.9083    0.1235 N.am      1 <0>        -0.6573
     12 C9          3.7219   -6.2566    0.0363 C.2       1 <0>         0.7139
     13 O1          2.6788   -6.8813    0.0431 O.2       1 <0>        -0.5351
     14 N4          3.7016   -4.9123   -0.0584 N.am      1 <0>        -0.6783
     15 C10         2.4812   -4.2276   -0.0368 C.ar      1 <0>         0.1651
     16 C11         1.4246   -4.7143    0.7233 C.ar      1 <0>        -0.1162
     17 C12         0.2185   -4.0405    0.7478 C.ar      1 <0>        -0.0943
     18 C13         0.0578   -2.8774    0.0210 C.ar      1 <0>        -0.1225
     19 C14         1.1102   -2.3853   -0.7486 C.ar      1 <0>        -0.0249
     20 C15         2.3261   -3.0634   -0.7735 C.ar      1 <0>        -0.1360
     21 C16         0.9374   -1.1386   -1.5347 C.ar      1 <0>        -0.0461
     22 C17        -0.2791   -0.4595   -1.5103 C.ar      1 <0>        -0.1086
     23 C18        -0.4341    0.6998   -2.2431 C.ar      1 <0>        -0.1169
     24 C19         0.6153    1.1877   -3.0006 C.ar      1 <0>        -0.1177
     25 C20         1.8250    0.5176   -3.0286 C.ar      1 <0>        -0.1179
     26 C21         1.9911   -0.6426   -2.2996 C.ar      1 <0>        -0.1109
     27 H1          3.7142  -12.1400   -1.6796 H         1 <0>         0.0555
     28 H2          2.2616  -12.8669   -0.9519 H         1 <0>         0.0641
     29 H3          2.2887  -11.1298   -1.3392 H         1 <0>         0.0606
     30 H4          4.6600  -12.6398    1.8860 H         1 <0>         0.0560
     31 H5          3.6463  -13.7487    0.9315 H         1 <0>         0.0589
     32 H6          5.0990  -13.0217    0.2038 H         1 <0>         0.0602
     33 H7          1.6726  -10.5938    1.0220 H         1 <0>         0.0628
     34 H8          1.6454  -12.3309    1.4093 H         1 <0>         0.0631
     35 H9          2.6591  -11.2220    2.3638 H         1 <0>         0.0560
     36 H10         2.8011   -8.8114    0.1814 H         1 <0>         0.1743
     37 H11         7.7230   -8.4205    1.3454 H         1 <0>         0.0749
     38 H12         8.0532   -9.3693   -0.1240 H         1 <0>         0.0953
     39 H13         7.4857   -7.6877   -0.2593 H         1 <0>         0.0779
     40 H14         5.7305   -6.4099    0.1181 H         1 <0>         0.4073
     41 H15         4.5328   -4.4193   -0.1416 H         1 <0>         0.4090
     42 H16         1.5465   -5.6213    1.2968 H         1 <0>         0.1382
     43 H17        -0.5997   -4.4224    1.3404 H         1 <0>         0.1308
     44 H18        -0.8850   -2.3512    0.0458 H         1 <0>         0.1281
     45 H19         3.1459   -2.6837   -1.3652 H         1 <0>         0.1286
     46 H20        -1.0990   -0.8394   -0.9188 H         1 <0>         0.1270
     47 H21        -1.3780    1.2245   -2.2284 H         1 <0>         0.1254
     48 H22         0.4895    2.0951   -3.5728 H         1 <0>         0.1234
     49 H23         2.6411    0.9030   -3.6218 H         1 <0>         0.1243
     50 H24         2.9362   -1.1648   -2.3218 H         1 <0>         0.1235
@<TRIPOS>BOND
     1    1    2 1
     2    1   27 1
     3    1   28 1
     4    1   29 1
     5    2    3 1
     6    2    4 1
     7    2    5 1
     8    3   30 1
     9    3   31 1
    10    3   32 1
    11    4   33 1
    12    4   34 1
    13    4   35 1
    14    5    9 2
    15    5    6 1
    16    6    7 2
    17    6   36 1
    18    7    8 1
    19    7   11 1
    20    8    9 1
    21    8   10 1
    22   10   37 1
    23   10   38 1
    24   10   39 1
    25   11   12 am
    26   11   40 1
    27   12   13 2
    28   12   14 am
    29   14   15 1
    30   14   41 1
    31   15   20 ar
    32   15   16 ar
    33   16   17 ar
    34   16   42 1
    35   17   18 ar
    36   17   43 1
    37   18   19 ar
    38   18   44 1
    39   19   20 ar
    40   19   21 1
    41   20   45 1
    42   21   26 ar
    43   21   22 ar
    44   22   23 ar
    45   22   46 1
    46   23   24 ar
    47   23   47 1
    48   24   25 ar
    49   24   48 1
    50   25   26 ar
    51   25   49 1
    52   26   50 1
@<TRIPOS>MOLECULE
ZINC03834018
   36    37     0     0     0
SMALL
USER_CHARGES

@<TRIPOS>ATOM
      1 C1          7.3948   -4.4141    0.3424 C.3       1 <0>        -0.0717
      2 C2          5.9467   -4.8312    0.3286 C.2       1 <0>        -0.2334
      3 C3          5.4177   -6.1352    0.4061 C.2       1 <0>         0.0518
      4 N1          4.1212   -6.0134    0.3517 N.2       1 <0>        -0.3565
      5 O1          3.7819   -4.8566    0.2595 O.3       1 <0>         0.1190
      6 C4          4.8421   -4.0334    0.2401 C.2       1 <0>         0.2199
      7 N2          4.8201   -2.6499    0.1435 N.am      1 <0>        -0.6289
      8 C5          3.6431   -1.9991    0.0572 C.2       1 <0>         0.7033
      9 O2          2.6006   -2.6246    0.0640 O.2       1 <0>        -0.5252
     10 N3          3.6217   -0.6548   -0.0366 N.am      1 <0>        -0.6696
     11 C6          2.4009    0.0296   -0.0075 C.ar      1 <0>         0.1877
     12 C7          1.2967   -0.5433    0.6095 C.ar      1 <0>        -0.1153
     13 C8          0.0930    0.1336    0.6366 C.ar      1 <0>        -0.0758
     14 C9         -0.0145    1.3812    0.0501 C.ar      1 <0>        -0.1153
     15 C10         1.0831    1.9561   -0.5659 C.ar      1 <0>        -0.0093
     16 C11         2.2914    1.2831   -0.5964 C.ar      1 <0>        -0.0681
     17 Cl1         3.6686    2.0036   -1.3696 Cl        1 <0>        -0.0431
     18 Cl2         0.9436    3.5224   -1.3014 Cl        1 <0>        -0.0402
     19 C12         6.1983   -7.4190    0.5228 C.3       1 <0>        -0.0164
     20 C13         5.8023   -8.1413    1.8121 C.3       1 <0>        -0.1457
     21 C14         5.8897   -8.3144   -0.6789 C.3       1 <0>        -0.1463
     22 H1          7.7136   -4.2424    1.3705 H         1 <0>         0.0732
     23 H2          8.0041   -5.2021   -0.1002 H         1 <0>         0.0772
     24 H3          7.5140   -3.4961   -0.2331 H         1 <0>         0.0649
     25 H4          5.6519   -2.1509    0.1381 H         1 <0>         0.4299
     26 H5          4.4523   -0.1614   -0.1244 H         1 <0>         0.4148
     27 H6          1.3789   -1.5178    1.0677 H         1 <0>         0.1635
     28 H7         -0.7655   -0.3122    1.1170 H         1 <0>         0.1464
     29 H8         -0.9582    1.9060    0.0690 H         1 <0>         0.1464
     30 H9          7.2648   -7.1951    0.5446 H         1 <0>         0.0927
     31 H10         4.7358   -8.3653    1.7902 H         1 <0>         0.0617
     32 H11         6.3669   -9.0699    1.8964 H         1 <0>         0.0663
     33 H12         6.0221   -7.5034    2.6681 H         1 <0>         0.0569
     34 H13         6.1718   -7.7998   -1.5974 H         1 <0>         0.0568
     35 H14         6.4543   -9.2430   -0.5945 H         1 <0>         0.0664
     36 H15         4.8232   -8.5384   -0.7007 H         1 <0>         0.0618
@<TRIPOS>BOND
     1    1    2 1
     2    1   22 1
     3    1   23 1
     4    1   24 1
     5    2    6 2
     6    2    3 1
     7    3    4 2
     8    3   19 1
     9    4    5 1
    10    5    6 1
    11    6    7 1
    12    7    8 am
    13    7   25 1
    14    8    9 2
    15    8   10 am
    16   10   11 1
    17   10   26 1
    18   11   16 ar
    19   11   12 ar
    20   12   13 ar
    21   12   27 1
    22   13   14 ar
    23   13   28 1
    24   14   15 ar
    25   14   29 1
    26   15   16 ar
    27   15   18 1
    28   16   17 1
    29   19   20 1
    30   19   21 1
    31   19   30 1
    32   20   31 1
    33   20   32 1
    34   20   33 1
    35   21   34 1
    36   21   35 1
    37   21   36 1
@<TRIPOS>MOLECULE
ZINC03995359
   43    46     0     0     0
SMALL
USER_CHARGES

@<TRIPOS>ATOM
      1 C1         -2.1867    2.3762    0.5682 C.3       1 <0>        -0.4979
      2 S1         -1.4699    2.2350   -1.0921 S.o       1 <0>         1.3317
      3 O1         -2.2452    1.3311   -1.8674 O.2       1 <0>        -0.8501
      4 C2          0.0475    1.3787   -0.8300 C.ar      1 <0>        -0.4537
      5 C3          1.2062    2.0919   -0.5785 C.ar      1 <0>        -0.0373
      6 C4          2.3987    1.4278   -0.3780 C.ar      1 <0>        -0.1280
      7 C5          2.4346    0.0334   -0.4293 C.ar      1 <0>         0.0176
      8 C6          1.2621   -0.6799   -0.6833 C.ar      1 <0>        -0.0900
      9 C7          0.0762   -0.0036   -0.8821 C.ar      1 <0>        -0.0506
     10 C8          3.7091   -0.6848   -0.2158 C.2       1 <0>         0.2584
     11 N1          4.9139   -0.0983    0.0391 N.pl3     1 <0>        -0.5505
     12 H1          5.0926    0.8827    0.1144 H         1 <0>         0.4314
     13 C9          5.8379   -1.1101    0.1733 C.2       1 <0>         0.0345
     14 C10         5.1467   -2.2969   -0.0087 C.2       1 <0>         0.0797
     15 N2          3.8604   -1.9898   -0.2359 N.2       1 <0>        -0.4513
     16 C11         5.7232   -3.6609    0.0442 C.ar      1 <0>        -0.0207
     17 C12         6.9520   -3.9248   -0.5600 C.ar      1 <0>        -0.0696
     18 C13         7.4867   -5.1952   -0.5043 C.ar      1 <0>        -0.1511
     19 C14         6.8003   -6.2105    0.1423 C.ar      1 <0>         0.1058
     20 C15         5.5766   -5.9544    0.7396 C.ar      1 <0>        -0.1526
     21 C16         5.0360   -4.6861    0.6934 C.ar      1 <0>        -0.0604
     22 F1          7.3258   -7.4542    0.1901 F         1 <0>        -0.1371
     23 C17         7.2778   -0.9604    0.4552 C.ar      1 <0>         0.0234
     24 C18         7.9016   -1.7288    1.4479 C.ar      1 <0>        -0.1427
     25 C19         9.2506   -1.5591    1.6745 C.ar      1 <0>         0.1082
     26 N3          9.9500   -0.6818    0.9791 N.ar      1 <0>        -0.4786
     27 C20         9.4018    0.0655    0.0392 C.ar      1 <0>         0.1069
     28 C21         8.0601   -0.0414   -0.2579 C.ar      1 <0>        -0.1650
     29 H2         -1.5062    2.9341    1.2115 H         1 <0>         0.1119
     30 H3         -3.1411    2.8993    0.5087 H         1 <0>         0.1086
     31 H4         -2.3435    1.3801    0.9822 H         1 <0>         0.0820
     32 H5          1.1771    3.1707   -0.5392 H         1 <0>         0.1447
     33 H6          3.3024    1.9855   -0.1815 H         1 <0>         0.1251
     34 H7          1.2832   -1.7589   -0.7246 H         1 <0>         0.1412
     35 H8         -0.8318   -0.5543   -1.0784 H         1 <0>         0.1340
     36 H9          7.4858   -3.1351   -1.0678 H         1 <0>         0.1290
     37 H10         8.4400   -5.3998   -0.9690 H         1 <0>         0.1389
     38 H11         5.0449   -6.7491    1.2418 H         1 <0>         0.1398
     39 H12         4.0819   -4.4875    1.1589 H         1 <0>         0.1371
     40 H13         7.3348   -2.4455    2.0236 H         1 <0>         0.1395
     41 H14         9.7412   -2.1490    2.4345 H         1 <0>         0.1623
     42 H15        10.0130    0.7708   -0.5043 H         1 <0>         0.1610
     43 H16         7.6185    0.5730   -1.0285 H         1 <0>         0.1345
@<TRIPOS>BOND
     1    1    2 1
     2    1   29 1
     3    1   30 1
     4    1   31 1
     5    2    3 2
     6    2    4 1
     7    4    9 ar
     8    4    5 ar
     9    5    6 ar
    10    5   32 1
    11    6    7 ar
    12    6   33 1
    13    7    8 ar
    14    7   10 1
    15    8    9 ar
    16    8   34 1
    17    9   35 1
    18   10   15 2
    19   10   11 1
    20   11   12 1
    21   11   13 1
    22   13   14 2
    23   13   23 1
    24   14   15 1
    25   14   16 1
    26   16   21 ar
    27   16   17 ar
    28   17   18 ar
    29   17   36 1
    30   18   19 ar
    31   18   37 1
    32   19   20 ar
    33   19   22 1
    34   20   21 ar
    35   20   38 1
    36   21   39 1
    37   23   28 ar
    38   23   24 ar
    39   24   25 ar
    40   24   40 1
    41   25   26 ar
    42   25   41 1
    43   26   27 ar
    44   27   28 ar
    45   27   42 1
    46   28   43 1
@<TRIPOS>MOLECULE
ZINC03995359
   43    46     0     0     0
SMALL
USER_CHARGES

@<TRIPOS>ATOM
      1 C1         -2.1867    2.3762    0.5682 C.3       1 <0>        -0.4977
      2 S1         -1.4699    2.2350   -1.0921 S.o       1 <0>         1.3329
      3 O1         -2.2452    1.3311   -1.8674 O.2       1 <0>        -0.8523
      4 C2          0.0475    1.3787   -0.8300 C.ar      1 <0>        -0.4541
      5 C3          1.2062    2.0919   -0.5785 C.ar      1 <0>        -0.0376
      6 C4          2.3987    1.4278   -0.3780 C.ar      1 <0>        -0.0927
      7 C5          2.4346    0.0334   -0.4293 C.ar      1 <0>         0.0183
      8 C6          1.2621   -0.6799   -0.6833 C.ar      1 <0>        -0.1286
      9 C7          0.0762   -0.0036   -0.8821 C.ar      1 <0>        -0.0485
     10 C8          3.7091   -0.6848   -0.2158 C.2       1 <0>         0.2279
     11 N1          4.9139   -0.0983    0.0391 N.2       1 <0>        -0.4424
     12 H1          3.1303   -2.6524   -0.4027 H         1 <0>         0.4298
     13 C9          5.8379   -1.1101    0.1733 C.2       1 <0>         0.0602
     14 C10         5.1485   -2.2965   -0.0179 C.2       1 <0>         0.0341
     15 N2          3.8615   -1.9896   -0.2414 N.pl3     1 <0>        -0.5060
     16 C11         5.7262   -3.6602    0.0284 C.ar      1 <0>        -0.0371
     17 C12         6.9540   -3.9206   -0.5792 C.ar      1 <0>        -0.0585
     18 C13         7.4899   -5.1908   -0.5296 C.ar      1 <0>        -0.1455
     19 C14         6.8056   -6.2093    0.1142 C.ar      1 <0>         0.1108
     20 C15         5.5829   -5.9566    0.7149 C.ar      1 <0>        -0.1477
     21 C16         5.0411   -4.6886    0.6748 C.ar      1 <0>        -0.0819
     22 F1          7.3323   -7.4527    0.1561 F         1 <0>        -0.1337
     23 C17         7.2778   -0.9604    0.4552 C.ar      1 <0>         0.0409
     24 C18         7.9016   -1.7288    1.4479 C.ar      1 <0>        -0.1527
     25 C19         9.2506   -1.5591    1.6745 C.ar      1 <0>         0.1021
     26 N3          9.9500   -0.6818    0.9791 N.ar      1 <0>        -0.4824
     27 C20         9.4018    0.0655    0.0392 C.ar      1 <0>         0.1013
     28 C21         8.0601   -0.0414   -0.2579 C.ar      1 <0>        -0.1466
     29 H2         -1.5062    2.9341    1.2115 H         1 <0>         0.1130
     30 H3         -3.1411    2.8993    0.5087 H         1 <0>         0.1087
     31 H4         -2.3435    1.3801    0.9822 H         1 <0>         0.0810
     32 H5          1.1771    3.1707   -0.5392 H         1 <0>         0.1467
     33 H6          3.3024    1.9855   -0.1815 H         1 <0>         0.1456
     34 H7          1.2832   -1.7589   -0.7246 H         1 <0>         0.1201
     35 H8         -0.8318   -0.5543   -1.0784 H         1 <0>         0.1322
     36 H9          7.4862   -3.1285   -1.0849 H         1 <0>         0.1355
     37 H10         8.4425   -5.3927   -0.9970 H         1 <0>         0.1432
     38 H11         5.0528   -6.7537    1.2150 H         1 <0>         0.1418
     39 H12         4.0878   -4.4926    1.1430 H         1 <0>         0.1310
     40 H13         7.3348   -2.4455    2.0236 H         1 <0>         0.1333
     41 H14         9.7412   -2.1490    2.4345 H         1 <0>         0.1581
     42 H15        10.0130    0.7708   -0.5043 H         1 <0>         0.1593
     43 H16         7.6185    0.5730   -1.0285 H         1 <0>         0.1384
@<TRIPOS>BOND
     1    1    2 1
     2    1   29 1
     3    1   30 1
     4    1   31 1
     5    2    3 2
     6    2    4 1
     7    4    9 ar
     8    4    5 ar
     9    5    6 ar
    10    5   32 1
    11    6    7 ar
    12    6   33 1
    13    7    8 ar
    14    7   10 1
    15    8    9 ar
    16    8   34 1
    17    9   35 1
    18   10   11 2
    19   10   15 1
    20   11   13 1
    21   12   15 1
    22   13   14 2
    23   13   23 1
    24   14   15 1
    25   14   16 1
    26   16   21 ar
    27   16   17 ar
    28   17   18 ar
    29   17   36 1
    30   18   19 ar
    31   18   37 1
    32   19   20 ar
    33   19   22 1
    34   20   21 ar
    35   20   38 1
    36   21   39 1
    37   23   28 ar
    38   23   24 ar
    39   24   25 ar
    40   24   40 1
    41   25   26 ar
    42   25   41 1
    43   26   27 ar
    44   27   28 ar
    45   27   42 1
    46   28   43 1
@<TRIPOS>MOLECULE
ZINC04617896
   67    71     0     0     0
SMALL
USER_CHARGES

@<TRIPOS>ATOM
      1 C1         -5.3422    1.7807   -3.2224 C.3       1 <0>        -0.1574
      2 C2         -4.2997    2.4265   -4.1374 C.3       1 <0>         0.2008
      3 H1         -4.7448    3.2792   -4.6501 H         1 <0>         0.1014
      4 C3         -3.8302    1.4180   -5.1541 C.ar      1 <0>        -0.0989
      5 C4         -2.8816    0.4751   -4.8052 C.ar      1 <0>        -0.1140
      6 C5         -2.4541   -0.4527   -5.7366 C.ar      1 <0>        -0.1141
      7 C6         -2.9683   -0.4315   -7.0195 C.ar      1 <0>        -0.1149
      8 C7         -3.9134    0.5145   -7.3698 C.ar      1 <0>        -0.1140
      9 C8         -4.3441    1.4396   -6.4372 C.ar      1 <0>        -0.1058
     10 N1         -3.1599    2.8790   -3.3360 N.pl3     1 <0>        -0.6850
     11 C9         -3.1946    4.1188   -2.7216 C.ar      1 <0>         0.5811
     12 N2         -4.2677    4.8828   -2.8697 N.ar      1 <0>        -0.5611
     13 C10        -4.3411    6.0758   -2.2991 C.ar      1 <0>         0.2079
     14 C11        -3.2804    6.5284   -1.5378 C.ar      1 <0>        -0.2973
     15 C12        -2.1586    5.7004   -1.3980 C.ar      1 <0>         0.2854
     16 N3         -2.1533    4.5129   -2.0068 N.ar      1 <0>        -0.5507
     17 C13        -1.0008    6.1365   -0.5966 C.2       1 <0>         0.0315
     18 C14        -0.0702    5.3258    0.0304 C.2       1 <0>         0.1106
     19 N4          0.8088    6.1312    0.6524 N.2       1 <0>        -0.4665
     20 C15         0.4853    7.3772    0.4414 C.2       1 <0>         0.2124
     21 N5         -0.6263    7.4329   -0.3208 N.pl3     1 <0>        -0.4339
     22 C16        -1.3094    8.6481   -0.7715 C.3       1 <0>         0.0550
     23 C17         1.2354    8.5715    0.9725 C.3       1 <0>        -0.0081
     24 C18         2.6724    8.5495    0.4445 C.3       1 <0>        -0.1402
     25 C19         3.4464    9.7295    1.0367 C.3       1 <0>        -0.0004
     26 C20         2.0744    9.7029    3.0340 C.3       1 <0>        -0.0004
     27 C21         1.2599    8.5212    2.5027 C.3       1 <0>        -0.1392
     28 C22        -0.0501    3.8444    0.0227 C.ar      1 <0>        -0.0087
     29 C23        -1.2468    3.1278    0.0298 C.ar      1 <0>        -0.0307
     30 C24        -1.2217    1.7485    0.0173 C.ar      1 <0>        -0.1243
     31 C25        -0.0126    1.0758    0.0080 C.ar      1 <0>        -0.0607
     32 C26         1.1774    1.7809    0.0004 C.ar      1 <0>        -0.1874
     33 C27         1.1651    3.1609    0.0079 C.ar      1 <0>        -0.0380
     34 C28         2.4900    1.0406   -0.0156 C.3       1 <0>         0.5092
     35 F1          2.2482   -0.3373   -0.0203 F         1 <0>        -0.1748
     36 F2          3.2094    1.3918   -1.1629 F         1 <0>        -0.1765
     37 F3          3.2308    1.3802    1.1215 F         1 <0>        -0.1775
     38 H2         -5.6818    2.5101   -2.4870 H         1 <0>         0.0644
     39 H3         -6.1903    1.4440   -3.8186 H         1 <0>         0.0715
     40 H4         -4.8971    0.9280   -2.7096 H         1 <0>         0.0585
     41 H5         -2.4769    0.4610   -3.8040 H         1 <0>         0.1183
     42 H6         -1.7160   -1.1920   -5.4628 H         1 <0>         0.1250
     43 H7         -2.6319   -1.1542   -7.7482 H         1 <0>         0.1251
     44 H8         -4.3151    0.5311   -8.3722 H         1 <0>         0.1263
     45 H9         -5.0822    2.1789   -6.7110 H         1 <0>         0.1252
     46 H10        -2.3809    2.3097   -3.2360 H         1 <0>         0.4141
     47 H11        -5.2212    6.6885   -2.4271 H         1 <0>         0.1730
     48 H12        -3.3152    7.4972   -1.0617 H         1 <0>         0.1408
     49 H13        -2.0603    8.9368   -0.0360 H         1 <0>         0.0905
     50 H14        -0.5828    9.4528   -0.8841 H         1 <0>         0.0928
     51 H15        -1.7932    8.4587   -1.7297 H         1 <0>         0.1004
     52 H16         0.7413    9.4866    0.6460 H         1 <0>         0.1019
     53 H17         3.1535    7.6162    0.7373 H         1 <0>         0.1046
     54 H18         2.6620    8.6287   -0.6426 H         1 <0>         0.1130
     55 H19         2.9735   10.6628    0.7312 H         1 <0>         0.1306
     56 H20         4.4744    9.7079    0.6749 H         1 <0>         0.1371
     57 H21         1.6079   10.6364    2.7191 H         1 <0>         0.1307
     58 H22         2.1058    9.6620    4.1228 H         1 <0>         0.1370
     59 H23         0.2409    8.5803    2.8851 H         1 <0>         0.1131
     60 H24         1.7181    7.5875    2.8288 H         1 <0>         0.1048
     61 H25        -2.1911    3.6518    0.0413 H         1 <0>         0.1219
     62 H26        -2.1476    1.1926    0.0191 H         1 <0>         0.1354
     63 H27         0.0021   -0.0041    0.0020 H         1 <0>         0.1405
     64 H28         2.0949    3.7103    0.0020 H         1 <0>         0.1332
     65 N6          3.4514    9.6341    2.5090 N.4       1 <0>        -0.5179
     66 H29         4.0003   10.4106    2.8964 H         1 <0>         0.4379
     67 H30         3.8759    8.7420    2.7887 H         1 <0>         0.4359
@<TRIPOS>BOND
     1    1    2 1
     2    1   38 1
     3    1   39 1
     4    1   40 1
     5    2    3 1
     6    2    4 1
     7    2   10 1
     8    4    9 ar
     9    4    5 ar
    10    5    6 ar
    11    5   41 1
    12    6    7 ar
    13    6   42 1
    14    7    8 ar
    15    7   43 1
    16    8    9 ar
    17    8   44 1
    18    9   45 1
    19   10   11 1
    20   10   46 1
    21   11   16 ar
    22   11   12 ar
    23   12   13 ar
    24   13   14 ar
    25   13   47 1
    26   14   15 ar
    27   14   48 1
    28   15   16 ar
    29   15   17 1
    30   17   21 1
    31   17   18 2
    32   18   19 1
    33   18   28 1
    34   19   20 2
    35   20   21 1
    36   20   23 1
    37   21   22 1
    38   22   49 1
    39   22   50 1
    40   22   51 1
    41   23   27 1
    42   23   24 1
    43   23   52 1
    44   24   25 1
    45   24   53 1
    46   24   54 1
    47   25   55 1
    48   25   56 1
    49   25   65 1
    50   26   27 1
    51   26   57 1
    52   26   58 1
    53   26   65 1
    54   27   59 1
    55   27   60 1
    56   28   33 ar
    57   28   29 ar
    58   29   30 ar
    59   29   61 1
    60   30   31 ar
    61   30   62 1
    62   31   32 ar
    63   31   63 1
    64   32   33 ar
    65   32   34 1
    66   33   64 1
    67   34   35 1
    68   34   36 1
    69   34   37 1
    70   65   66 1
    71   65   67 1
@<TRIPOS>MOLECULE
ZINC04617896
   67    71     0     0     0
SMALL
USER_CHARGES

@<TRIPOS>ATOM
      1 C1         -5.3422    1.7807   -3.2224 C.3       1 <0>        -0.1574
      2 C2         -4.2997    2.4265   -4.1374 C.3       1 <0>         0.2008
      3 H1         -4.7448    3.2792   -4.6501 H         1 <0>         0.1014
      4 C3         -3.8302    1.4180   -5.1541 C.ar      1 <0>        -0.0989
      5 C4         -2.8816    0.4751   -4.8052 C.ar      1 <0>        -0.1140
      6 C5         -2.4541   -0.4527   -5.7366 C.ar      1 <0>        -0.1141
      7 C6         -2.9683   -0.4315   -7.0195 C.ar      1 <0>        -0.1149
      8 C7         -3.9134    0.5145   -7.3698 C.ar      1 <0>        -0.1140
      9 C8         -4.3441    1.4396   -6.4372 C.ar      1 <0>        -0.1058
     10 N1         -3.1599    2.8790   -3.3360 N.pl3     1 <0>        -0.6850
     11 C9         -3.1946    4.1188   -2.7216 C.ar      1 <0>         0.5811
     12 N2         -4.2677    4.8828   -2.8697 N.ar      1 <0>        -0.5611
     13 C10        -4.3411    6.0758   -2.2991 C.ar      1 <0>         0.2079
     14 C11        -3.2804    6.5284   -1.5378 C.ar      1 <0>        -0.2973
     15 C12        -2.1586    5.7004   -1.3980 C.ar      1 <0>         0.2854
     16 N3         -2.1533    4.5129   -2.0068 N.ar      1 <0>        -0.5507
     17 C13        -1.0008    6.1365   -0.5966 C.2       1 <0>         0.0315
     18 C14        -0.0702    5.3258    0.0304 C.2       1 <0>         0.1106
     19 N4          0.8088    6.1312    0.6524 N.2       1 <0>        -0.4665
     20 C15         0.4853    7.3772    0.4414 C.2       1 <0>         0.2124
     21 N5         -0.6263    7.4329   -0.3208 N.pl3     1 <0>        -0.4339
     22 C16        -1.3094    8.6481   -0.7715 C.3       1 <0>         0.0550
     23 C17         1.2354    8.5715    0.9725 C.3       1 <0>        -0.0081
     24 C18         2.6724    8.5495    0.4445 C.3       1 <0>        -0.1402
     25 C19         3.4464    9.7295    1.0367 C.3       1 <0>        -0.0004
     26 C20         2.0744    9.7029    3.0340 C.3       1 <0>        -0.0004
     27 C21         1.2599    8.5212    2.5027 C.3       1 <0>        -0.1392
     28 C22        -0.0501    3.8444    0.0227 C.ar      1 <0>        -0.0087
     29 C23        -1.2468    3.1278    0.0298 C.ar      1 <0>        -0.0307
     30 C24        -1.2217    1.7485    0.0173 C.ar      1 <0>        -0.1243
     31 C25        -0.0126    1.0758    0.0080 C.ar      1 <0>        -0.0607
     32 C26         1.1774    1.7809    0.0004 C.ar      1 <0>        -0.1874
     33 C27         1.1651    3.1609    0.0079 C.ar      1 <0>        -0.0380
     34 C28         2.4900    1.0406   -0.0156 C.3       1 <0>         0.5092
     35 F1          2.2482   -0.3373   -0.0203 F         1 <0>        -0.1748
     36 F2          3.2094    1.3918   -1.1629 F         1 <0>        -0.1765
     37 F3          3.2308    1.3802    1.1215 F         1 <0>        -0.1775
     38 H2         -5.6818    2.5101   -2.4870 H         1 <0>         0.0644
     39 H3         -6.1903    1.4440   -3.8186 H         1 <0>         0.0715
     40 H4         -4.8971    0.9280   -2.7096 H         1 <0>         0.0585
     41 H5         -2.4769    0.4610   -3.8040 H         1 <0>         0.1183
     42 H6         -1.7160   -1.1920   -5.4628 H         1 <0>         0.1250
     43 H7         -2.6319   -1.1542   -7.7482 H         1 <0>         0.1251
     44 H8         -4.3151    0.5311   -8.3722 H         1 <0>         0.1263
     45 H9         -5.0822    2.1789   -6.7110 H         1 <0>         0.1252
     46 H10        -2.3809    2.3097   -3.2360 H         1 <0>         0.4141
     47 H11        -5.2212    6.6885   -2.4271 H         1 <0>         0.1730
     48 H12        -3.3152    7.4972   -1.0617 H         1 <0>         0.1408
     49 H13        -2.0603    8.9368   -0.0360 H         1 <0>         0.0905
     50 H14        -0.5828    9.4528   -0.8841 H         1 <0>         0.0928
     51 H15        -1.7932    8.4587   -1.7297 H         1 <0>         0.1004
     52 H16         0.7413    9.4866    0.6460 H         1 <0>         0.1019
     53 H17         3.1535    7.6162    0.7373 H         1 <0>         0.1046
     54 H18         2.6620    8.6287   -0.6426 H         1 <0>         0.1130
     55 H19         2.9735   10.6628    0.7312 H         1 <0>         0.1306
     56 H20         4.4744    9.7079    0.6749 H         1 <0>         0.1371
     57 H21         1.6079   10.6364    2.7191 H         1 <0>         0.1307
     58 H22         2.1058    9.6620    4.1228 H         1 <0>         0.1370
     59 H23         0.2409    8.5803    2.8851 H         1 <0>         0.1131
     60 H24         1.7181    7.5875    2.8288 H         1 <0>         0.1048
     61 H25        -2.1911    3.6518    0.0413 H         1 <0>         0.1219
     62 H26        -2.1476    1.1926    0.0191 H         1 <0>         0.1354
     63 H27         0.0021   -0.0041    0.0020 H         1 <0>         0.1405
     64 H28         2.0949    3.7103    0.0020 H         1 <0>         0.1332
     65 N6          3.4514    9.6341    2.5090 N.4       1 <0>        -0.5179
     66 H29         4.0003   10.4106    2.8964 H         1 <0>         0.4379
     67 H30         3.8759    8.7420    2.7887 H         1 <0>         0.4359
@<TRIPOS>BOND
     1    1    2 1
     2    1   38 1
     3    1   39 1
     4    1   40 1
     5    2    3 1
     6    2    4 1
     7    2   10 1
     8    4    9 ar
     9    4    5 ar
    10    5    6 ar
    11    5   41 1
    12    6    7 ar
    13    6   42 1
    14    7    8 ar
    15    7   43 1
    16    8    9 ar
    17    8   44 1
    18    9   45 1
    19   10   11 1
    20   10   46 1
    21   11   16 ar
    22   11   12 ar
    23   12   13 ar
    24   13   14 ar
    25   13   47 1
    26   14   15 ar
    27   14   48 1
    28   15   16 ar
    29   15   17 1
    30   17   21 1
    31   17   18 2
    32   18   19 1
    33   18   28 1
    34   19   20 2
    35   20   21 1
    36   20   23 1
    37   21   22 1
    38   22   49 1
    39   22   50 1
    40   22   51 1
    41   23   27 1
    42   23   24 1
    43   23   52 1
    44   24   25 1
    45   24   53 1
    46   24   54 1
    47   25   55 1
    48   25   56 1
    49   25   65 1
    50   26   27 1
    51   26   57 1
    52   26   58 1
    53   26   65 1
    54   27   59 1
    55   27   60 1
    56   28   33 ar
    57   28   29 ar
    58   29   30 ar
    59   29   61 1
    60   30   31 ar
    61   30   62 1
    62   31   32 ar
    63   31   63 1
    64   32   33 ar
    65   32   34 1
    66   33   64 1
    67   34   35 1
    68   34   36 1
    69   34   37 1
    70   65   66 1
    71   65   67 1
@<TRIPOS>MOLECULE
ZINC04617897
   69    73     0     0     0
SMALL
USER_CHARGES

@<TRIPOS>ATOM
      1 C1         -0.9231    3.4827   -5.2578 C.3       1 <0>        -0.1716
      2 C2         -1.7445    2.6532   -4.2688 C.3       1 <0>         0.1828
      3 H1         -1.2046    2.5735   -3.3252 H         1 <0>         0.1068
      4 C3         -1.9713    1.2754   -4.8356 C.ar      1 <0>        -0.1176
      5 C4         -2.9658    1.0689   -5.7732 C.ar      1 <0>        -0.1173
      6 C5         -3.1710   -0.1941   -6.2964 C.ar      1 <0>        -0.1086
      7 C6         -2.3878   -1.2523   -5.8752 C.ar      1 <0>        -0.1001
      8 C7         -1.3967   -1.0469   -4.9336 C.ar      1 <0>        -0.1065
      9 C8         -1.1887    0.2169   -4.4137 C.ar      1 <0>        -0.0992
     10 N1         -3.0360    3.3054   -4.0389 N.pl3     1 <0>        -0.6843
     11 C9         -3.1474    4.3098   -3.0837 C.ar      1 <0>         0.4669
     12 C10        -2.0301    4.6884   -2.3523 C.ar      1 <0>        -0.1920
     13 C11        -2.1593    5.6998   -1.3958 C.ar      1 <0>         0.1547
     14 C12        -3.4219    6.2847   -1.2153 C.ar      1 <0>        -0.1825
     15 C13        -4.4774    5.8529   -1.9865 C.ar      1 <0>         0.1738
     16 C14        -1.0001    6.1364   -0.5931 C.2       1 <0>        -0.0218
     17 C15        -0.0702    5.3257    0.0328 C.2       1 <0>         0.1250
     18 N2          0.8094    6.1309    0.6563 N.2       1 <0>        -0.4611
     19 C16         0.4857    7.3765    0.4462 C.2       1 <0>         0.2416
     20 N3         -0.6267    7.4318   -0.3168 N.pl3     1 <0>        -0.4328
     21 C17        -1.3101    8.6467   -0.7677 C.3       1 <0>         0.0531
     22 C18         1.2351    8.5709    0.9782 C.3       1 <0>        -0.0155
     23 C19         2.6723    8.5499    0.4504 C.3       1 <0>        -0.1401
     24 C20         3.4455    9.7300    1.0435 C.3       1 <0>        -0.0013
     25 C21         2.0732    9.7015    3.0405 C.3       1 <0>        -0.0012
     26 C22         1.2594    8.5197    2.5083 C.3       1 <0>        -0.1393
     27 C23        -0.0501    3.8444    0.0236 C.ar      1 <0>        -0.0324
     28 C24        -1.2468    3.1278    0.0308 C.ar      1 <0>        -0.0784
     29 C25        -1.2217    1.7485    0.0174 C.ar      1 <0>        -0.1145
     30 C26        -0.0126    1.0758    0.0080 C.ar      1 <0>        -0.0540
     31 C27         1.1774    1.7809    0.0004 C.ar      1 <0>        -0.1734
     32 C28         1.1652    3.1609    0.0084 C.ar      1 <0>        -0.0319
     33 C29         2.4900    1.0406   -0.0161 C.3       1 <0>         0.5066
     34 F1          2.2482   -0.3373   -0.0212 F         1 <0>        -0.1705
     35 F2          3.2092    1.3921   -1.1635 F         1 <0>        -0.1736
     36 F3          3.2310    1.3799    1.1210 F         1 <0>        -0.1719
     37 H2         -1.4629    3.5623   -6.2014 H         1 <0>         0.0746
     38 H3         -0.7590    4.4792   -4.8478 H         1 <0>         0.0648
     39 H4          0.0378    2.9974   -5.4288 H         1 <0>         0.0909
     40 H5         -3.5802    1.8950   -6.0996 H         1 <0>         0.1159
     41 H6         -3.9451   -0.3545   -7.0323 H         1 <0>         0.1312
     42 H7         -2.5498   -2.2396   -6.2819 H         1 <0>         0.1329
     43 H8         -0.7848   -1.8737   -4.6045 H         1 <0>         0.1336
     44 H9         -0.4144    0.3775   -3.6780 H         1 <0>         0.1268
     45 H10        -3.8134    3.0366   -4.5530 H         1 <0>         0.4214
     46 H11        -1.0767    4.2093   -2.5192 H         1 <0>         0.1825
     47 H12        -3.5631    7.0659   -0.4831 H         1 <0>         0.1777
     48 H13        -5.4507    6.3021   -1.8551 H         1 <0>         0.2012
     49 H14        -2.0612    8.9353   -0.0324 H         1 <0>         0.0951
     50 H15        -0.5837    9.4516   -0.8802 H         1 <0>         0.1010
     51 H16        -1.7937    8.4571   -1.7259 H         1 <0>         0.0958
     52 H17         0.7406    9.4859    0.6522 H         1 <0>         0.1061
     53 H18         3.1537    7.6167    0.7428 H         1 <0>         0.1054
     54 H19         2.6620    8.6298   -0.6366 H         1 <0>         0.1136
     55 H20         2.9722   10.6632    0.7385 H         1 <0>         0.1322
     56 H21         4.4736    9.7091    0.6818 H         1 <0>         0.1400
     57 H22         1.6063   10.6349    2.7261 H         1 <0>         0.1323
     58 H23         2.1044    9.6599    4.1293 H         1 <0>         0.1401
     59 H24         0.2403    8.5780    2.8906 H         1 <0>         0.1136
     60 H25         1.7180    7.5860    2.8340 H         1 <0>         0.1057
     61 H26        -2.1911    3.6517    0.0426 H         1 <0>         0.1246
     62 H27        -2.1476    1.1926    0.0184 H         1 <0>         0.1428
     63 H28         0.0021   -0.0041    0.0020 H         1 <0>         0.1489
     64 H29         2.0949    3.7103    0.0024 H         1 <0>         0.1421
     65 N4         -4.3833    4.8707   -2.9256 N.ar      1 <0>        -0.5425
     66 H30        -5.1926    4.5698   -3.4812 H         1 <0>         0.4723
     67 N5          3.4503    9.6337    2.5157 N.4       1 <0>        -0.5187
     68 H31         3.9987   10.4103    2.9036 H         1 <0>         0.4417
     69 H32         3.8752    8.7417    2.7949 H         1 <0>         0.4365
@<TRIPOS>BOND
     1    1    2 1
     2    1   37 1
     3    1   38 1
     4    1   39 1
     5    2    3 1
     6    2    4 1
     7    2   10 1
     8    4    9 ar
     9    4    5 ar
    10    5    6 ar
    11    5   40 1
    12    6    7 ar
    13    6   41 1
    14    7    8 ar
    15    7   42 1
    16    8    9 ar
    17    8   43 1
    18    9   44 1
    19   10   11 1
    20   10   45 1
    21   11   12 ar
    22   11   65 ar
    23   12   13 ar
    24   12   46 1
    25   13   14 ar
    26   13   16 1
    27   14   15 ar
    28   14   47 1
    29   15   48 1
    30   15   65 ar
    31   16   20 1
    32   16   17 2
    33   17   18 1
    34   17   27 1
    35   18   19 2
    36   19   20 1
    37   19   22 1
    38   20   21 1
    39   21   49 1
    40   21   50 1
    41   21   51 1
    42   22   26 1
    43   22   23 1
    44   22   52 1
    45   23   24 1
    46   23   53 1
    47   23   54 1
    48   24   55 1
    49   24   56 1
    50   24   67 1
    51   25   26 1
    52   25   57 1
    53   25   58 1
    54   25   67 1
    55   26   59 1
    56   26   60 1
    57   27   32 ar
    58   27   28 ar
    59   28   29 ar
    60   28   61 1
    61   29   30 ar
    62   29   62 1
    63   30   31 ar
    64   30   63 1
    65   31   32 ar
    66   31   33 1
    67   32   64 1
    68   33   34 1
    69   33   35 1
    70   33   36 1
    71   65   66 1
    72   67   68 1
    73   67   69 1
@<TRIPOS>MOLECULE
ZINC04617897
   69    73     0     0     0
SMALL
USER_CHARGES

@<TRIPOS>ATOM
      1 C1         -0.9231    3.4827   -5.2578 C.3       1 <0>        -0.1716
      2 C2         -1.7445    2.6532   -4.2688 C.3       1 <0>         0.1828
      3 H1         -1.2046    2.5735   -3.3252 H         1 <0>         0.1068
      4 C3         -1.9713    1.2754   -4.8356 C.ar      1 <0>        -0.1176
      5 C4         -2.9658    1.0689   -5.7732 C.ar      1 <0>        -0.1173
      6 C5         -3.1710   -0.1941   -6.2964 C.ar      1 <0>        -0.1086
      7 C6         -2.3878   -1.2523   -5.8752 C.ar      1 <0>        -0.1001
      8 C7         -1.3967   -1.0469   -4.9336 C.ar      1 <0>        -0.1065
      9 C8         -1.1887    0.2169   -4.4137 C.ar      1 <0>        -0.0992
     10 N1         -3.0360    3.3054   -4.0389 N.pl3     1 <0>        -0.6843
     11 C9         -3.1474    4.3098   -3.0837 C.ar      1 <0>         0.4669
     12 C10        -2.0301    4.6884   -2.3523 C.ar      1 <0>        -0.1920
     13 C11        -2.1593    5.6998   -1.3958 C.ar      1 <0>         0.1547
     14 C12        -3.4219    6.2847   -1.2153 C.ar      1 <0>        -0.1825
     15 C13        -4.4774    5.8529   -1.9865 C.ar      1 <0>         0.1738
     16 C14        -1.0001    6.1364   -0.5931 C.2       1 <0>        -0.0218
     17 C15        -0.0702    5.3257    0.0328 C.2       1 <0>         0.1250
     18 N2          0.8094    6.1309    0.6563 N.2       1 <0>        -0.4611
     19 C16         0.4857    7.3765    0.4462 C.2       1 <0>         0.2416
     20 N3         -0.6267    7.4318   -0.3168 N.pl3     1 <0>        -0.4328
     21 C17        -1.3101    8.6467   -0.7677 C.3       1 <0>         0.0531
     22 C18         1.2351    8.5709    0.9782 C.3       1 <0>        -0.0155
     23 C19         2.6723    8.5499    0.4504 C.3       1 <0>        -0.1401
     24 C20         3.4455    9.7300    1.0435 C.3       1 <0>        -0.0013
     25 C21         2.0732    9.7015    3.0405 C.3       1 <0>        -0.0012
     26 C22         1.2594    8.5197    2.5083 C.3       1 <0>        -0.1393
     27 C23        -0.0501    3.8444    0.0236 C.ar      1 <0>        -0.0324
     28 C24        -1.2468    3.1278    0.0308 C.ar      1 <0>        -0.0784
     29 C25        -1.2217    1.7485    0.0174 C.ar      1 <0>        -0.1145
     30 C26        -0.0126    1.0758    0.0080 C.ar      1 <0>        -0.0540
     31 C27         1.1774    1.7809    0.0004 C.ar      1 <0>        -0.1734
     32 C28         1.1652    3.1609    0.0084 C.ar      1 <0>        -0.0319
     33 C29         2.4900    1.0406   -0.0161 C.3       1 <0>         0.5066
     34 F1          2.2482   -0.3373   -0.0212 F         1 <0>        -0.1705
     35 F2          3.2092    1.3921   -1.1635 F         1 <0>        -0.1736
     36 F3          3.2310    1.3799    1.1210 F         1 <0>        -0.1719
     37 H2         -1.4629    3.5623   -6.2014 H         1 <0>         0.0746
     38 H3         -0.7590    4.4792   -4.8478 H         1 <0>         0.0648
     39 H4          0.0378    2.9974   -5.4288 H         1 <0>         0.0909
     40 H5         -3.5802    1.8950   -6.0996 H         1 <0>         0.1159
     41 H6         -3.9451   -0.3545   -7.0323 H         1 <0>         0.1312
     42 H7         -2.5498   -2.2396   -6.2819 H         1 <0>         0.1329
     43 H8         -0.7848   -1.8737   -4.6045 H         1 <0>         0.1336
     44 H9         -0.4144    0.3775   -3.6780 H         1 <0>         0.1268
     45 H10        -3.8134    3.0366   -4.5530 H         1 <0>         0.4214
     46 H11        -1.0767    4.2093   -2.5192 H         1 <0>         0.1825
     47 H12        -3.5631    7.0659   -0.4831 H         1 <0>         0.1777
     48 H13        -5.4507    6.3021   -1.8551 H         1 <0>         0.2012
     49 H14        -2.0612    8.9353   -0.0324 H         1 <0>         0.0951
     50 H15        -0.5837    9.4516   -0.8802 H         1 <0>         0.1010
     51 H16        -1.7937    8.4571   -1.7259 H         1 <0>         0.0958
     52 H17         0.7406    9.4859    0.6522 H         1 <0>         0.1061
     53 H18         3.1537    7.6167    0.7428 H         1 <0>         0.1054
     54 H19         2.6620    8.6298   -0.6366 H         1 <0>         0.1136
     55 H20         2.9722   10.6632    0.7385 H         1 <0>         0.1322
     56 H21         4.4736    9.7091    0.6818 H         1 <0>         0.1400
     57 H22         1.6063   10.6349    2.7261 H         1 <0>         0.1323
     58 H23         2.1044    9.6599    4.1293 H         1 <0>         0.1401
     59 H24         0.2403    8.5780    2.8906 H         1 <0>         0.1136
     60 H25         1.7180    7.5860    2.8340 H         1 <0>         0.1057
     61 H26        -2.1911    3.6517    0.0426 H         1 <0>         0.1246
     62 H27        -2.1476    1.1926    0.0184 H         1 <0>         0.1428
     63 H28         0.0021   -0.0041    0.0020 H         1 <0>         0.1489
     64 H29         2.0949    3.7103    0.0024 H         1 <0>         0.1421
     65 N4         -4.3833    4.8707   -2.9256 N.ar      1 <0>        -0.5425
     66 H30        -5.1926    4.5698   -3.4812 H         1 <0>         0.4723
     67 N5          3.4503    9.6337    2.5157 N.4       1 <0>        -0.5187
     68 H31         3.9987   10.4103    2.9036 H         1 <0>         0.4417
     69 H32         3.8752    8.7417    2.7949 H         1 <0>         0.4365
@<TRIPOS>BOND
     1    1    2 1
     2    1   37 1
     3    1   38 1
     4    1   39 1
     5    2    3 1
     6    2    4 1
     7    2   10 1
     8    4    9 ar
     9    4    5 ar
    10    5    6 ar
    11    5   40 1
    12    6    7 ar
    13    6   41 1
    14    7    8 ar
    15    7   42 1
    16    8    9 ar
    17    8   43 1
    18    9   44 1
    19   10   11 1
    20   10   45 1
    21   11   12 ar
    22   11   65 ar
    23   12   13 ar
    24   12   46 1
    25   13   14 ar
    26   13   16 1
    27   14   15 ar
    28   14   47 1
    29   15   48 1
    30   15   65 ar
    31   16   20 1
    32   16   17 2
    33   17   18 1
    34   17   27 1
    35   18   19 2
    36   19   20 1
    37   19   22 1
    38   20   21 1
    39   21   49 1
    40   21   50 1
    41   21   51 1
    42   22   26 1
    43   22   23 1
    44   22   52 1
    45   23   24 1
    46   23   53 1
    47   23   54 1
    48   24   55 1
    49   24   56 1
    50   24   67 1
    51   25   26 1
    52   25   57 1
    53   25   58 1
    54   25   67 1
    55   26   59 1
    56   26   60 1
    57   27   32 ar
    58   27   28 ar
    59   28   29 ar
    60   28   61 1
    61   29   30 ar
    62   29   62 1
    63   30   31 ar
    64   30   63 1
    65   31   32 ar
    66   31   33 1
    67   32   64 1
    68   33   34 1
    69   33   35 1
    70   33   36 1
    71   65   66 1
    72   67   68 1
    73   67   69 1
@<TRIPOS>MOLECULE
ZINC04617898
   64    68     0     0     0
SMALL
USER_CHARGES

@<TRIPOS>ATOM
      1 C1          5.3254    1.2494    5.5754 C.3       1 <0>        -0.1579
      2 C2          5.4652    0.7215    4.1462 C.3       1 <0>         0.2008
      3 H1          6.3819    1.1108    3.7031 H         1 <0>         0.1022
      4 C3          5.5188   -0.7843    4.1699 C.ar      1 <0>        -0.0992
      5 C4          4.3524   -1.5156    4.2947 C.ar      1 <0>        -0.1138
      6 C5          4.4012   -2.8970    4.3121 C.ar      1 <0>        -0.1137
      7 C6          5.6173   -3.5469    4.2137 C.ar      1 <0>        -0.1143
      8 C7          6.7842   -2.8155    4.0942 C.ar      1 <0>        -0.1138
      9 C8          6.7350   -1.4342    4.0725 C.ar      1 <0>        -0.1054
     10 N1          4.3149    1.1567    3.3501 N.pl3     1 <0>        -0.6843
     11 C9          4.3213    2.4034    2.7488 C.ar      1 <0>         0.5816
     12 N2          5.3772    3.1897    2.9044 N.ar      1 <0>        -0.5611
     13 C10         5.4236    4.3899    2.3459 C.ar      1 <0>         0.2077
     14 C11         4.3526    4.8263    1.5896 C.ar      1 <0>        -0.2925
     15 C12         3.2496    3.9748    1.4416 C.ar      1 <0>         0.2844
     16 N3          3.2712    2.7814    2.0382 N.ar      1 <0>        -0.5499
     17 C13         2.0820    4.3931    0.6449 C.2       1 <0>         0.0334
     18 C14         1.1698    3.5681    0.0096 C.2       1 <0>         0.1159
     19 N4          0.2728    4.3599   -0.6043 N.2       1 <0>        -0.4602
     20 C15         0.5682    5.6106   -0.3804 C.2       1 <0>         0.2210
     21 N5          1.6784    5.6835    0.3824 N.pl3     1 <0>        -0.5505
     22 H2          2.1258    6.5200    0.6988 H         1 <0>         0.4272
     23 C16        -0.2083    6.7932   -0.8995 C.3       1 <0>        -0.0111
     24 C17         0.7565    7.9381   -1.2201 C.3       1 <0>        -0.1503
     25 C18        -0.0428    9.1561   -1.6888 C.3       1 <0>         0.0011
     26 C19        -1.9470    8.4965   -0.3430 C.3       1 <0>        -0.0010
     27 C20        -1.2046    7.2588    0.1659 C.3       1 <0>        -0.1430
     28 C21         1.1830    2.0866    0.0020 C.ar      1 <0>        -0.0137
     29 C22         2.3954    1.3973   -0.0138 C.ar      1 <0>        -0.0302
     30 C23         2.4013    0.0176   -0.0212 C.ar      1 <0>        -0.1235
     31 C24         1.2076   -0.6821   -0.0136 C.ar      1 <0>        -0.0566
     32 C25         0.0021   -0.0041    0.0020 C.ar      1 <0>        -0.1872
     33 C26        -0.0166    1.3759    0.0096 C.ar      1 <0>        -0.0381
     34 C27        -1.2935   -0.7738    0.0103 C.3       1 <0>         0.5092
     35 F1         -1.7070   -1.0048   -1.3061 F         1 <0>        -0.1751
     36 F2         -1.1048   -1.9975    0.6614 F         1 <0>        -0.1749
     37 F3         -2.2715   -0.0334    0.6831 F         1 <0>        -0.1778
     38 H3          4.4087    0.8602    6.0185 H         1 <0>         0.0581
     39 H4          6.1812    0.9256    6.1677 H         1 <0>         0.0718
     40 H5          5.2866    2.3386    5.5583 H         1 <0>         0.0634
     41 H6          3.4027   -1.0077    4.3753 H         1 <0>         0.1179
     42 H7          3.4895   -3.4684    4.4051 H         1 <0>         0.1250
     43 H8          5.6556   -4.6261    4.2300 H         1 <0>         0.1251
     44 H9          7.7343   -3.3233    4.0173 H         1 <0>         0.1263
     45 H10         7.6467   -0.8628    3.9791 H         1 <0>         0.1251
     46 H11         3.5488    0.5712    3.2445 H         1 <0>         0.4146
     47 H12         6.2898    5.0208    2.4800 H         1 <0>         0.1726
     48 H13         4.3655    5.8004    1.1233 H         1 <0>         0.1356
     49 H14        -0.7479    6.5067   -1.8023 H         1 <0>         0.1257
     50 H15         1.3236    8.1972   -0.3260 H         1 <0>         0.0858
     51 H16         1.4415    7.6268   -2.0087 H         1 <0>         0.1213
     52 H17        -0.5988    8.9004   -2.5908 H         1 <0>         0.1369
     53 H18         0.6403    9.9778   -1.9042 H         1 <0>         0.1378
     54 H19        -2.4941    8.2439   -1.2512 H         1 <0>         0.1364
     55 H20        -2.6469    8.8391    0.4191 H         1 <0>         0.1377
     56 H21        -1.9207    6.4622    0.3675 H         1 <0>         0.1231
     57 H22        -0.6683    7.5072    1.0818 H         1 <0>         0.0887
     58 H23         3.3277    1.9424   -0.0198 H         1 <0>         0.1216
     59 H24         3.3394   -0.5172   -0.0334 H         1 <0>         0.1354
     60 H25         1.2172   -1.7620   -0.0202 H         1 <0>         0.1381
     61 H26        -0.9586    1.9042    0.0169 H         1 <0>         0.1371
     62 N6         -0.9804    9.5738   -0.6291 N.4       1 <0>        -0.5185
     63 H27        -1.4885   10.4109   -0.9378 H         1 <0>         0.4399
     64 H28        -0.4519    9.7895    0.2243 H         1 <0>         0.4320
@<TRIPOS>BOND
     1    1    2 1
     2    1   38 1
     3    1   39 1
     4    1   40 1
     5    2    3 1
     6    2    4 1
     7    2   10 1
     8    4    9 ar
     9    4    5 ar
    10    5    6 ar
    11    5   41 1
    12    6    7 ar
    13    6   42 1
    14    7    8 ar
    15    7   43 1
    16    8    9 ar
    17    8   44 1
    18    9   45 1
    19   10   11 1
    20   10   46 1
    21   11   16 ar
    22   11   12 ar
    23   12   13 ar
    24   13   14 ar
    25   13   47 1
    26   14   15 ar
    27   14   48 1
    28   15   16 ar
    29   15   17 1
    30   17   21 1
    31   17   18 2
    32   18   19 1
    33   18   28 1
    34   19   20 2
    35   20   21 1
    36   20   23 1
    37   21   22 1
    38   23   27 1
    39   23   24 1
    40   23   49 1
    41   24   25 1
    42   24   50 1
    43   24   51 1
    44   25   52 1
    45   25   53 1
    46   25   62 1
    47   26   27 1
    48   26   54 1
    49   26   55 1
    50   26   62 1
    51   27   56 1
    52   27   57 1
    53   28   33 ar
    54   28   29 ar
    55   29   30 ar
    56   29   58 1
    57   30   31 ar
    58   30   59 1
    59   31   32 ar
    60   31   60 1
    61   32   33 ar
    62   32   34 1
    63   33   61 1
    64   34   35 1
    65   34   36 1
    66   34   37 1
    67   62   63 1
    68   62   64 1
@<TRIPOS>MOLECULE
ZINC04617898
   64    68     0     0     0
SMALL
USER_CHARGES

@<TRIPOS>ATOM
      1 C1          5.3254    1.2494    5.5754 C.3       1 <0>        -0.1579
      2 C2          5.4652    0.7215    4.1462 C.3       1 <0>         0.2008
      3 H1          6.3819    1.1108    3.7031 H         1 <0>         0.1022
      4 C3          5.5188   -0.7843    4.1699 C.ar      1 <0>        -0.0992
      5 C4          4.3524   -1.5156    4.2947 C.ar      1 <0>        -0.1138
      6 C5          4.4012   -2.8970    4.3121 C.ar      1 <0>        -0.1137
      7 C6          5.6173   -3.5469    4.2137 C.ar      1 <0>        -0.1143
      8 C7          6.7842   -2.8155    4.0942 C.ar      1 <0>        -0.1138
      9 C8          6.7350   -1.4342    4.0725 C.ar      1 <0>        -0.1054
     10 N1          4.3149    1.1567    3.3501 N.pl3     1 <0>        -0.6843
     11 C9          4.3213    2.4034    2.7488 C.ar      1 <0>         0.5816
     12 N2          5.3772    3.1897    2.9044 N.ar      1 <0>        -0.5611
     13 C10         5.4236    4.3899    2.3459 C.ar      1 <0>         0.2077
     14 C11         4.3526    4.8263    1.5896 C.ar      1 <0>        -0.2925
     15 C12         3.2496    3.9748    1.4416 C.ar      1 <0>         0.2844
     16 N3          3.2712    2.7814    2.0382 N.ar      1 <0>        -0.5499
     17 C13         2.0820    4.3931    0.6449 C.2       1 <0>         0.0334
     18 C14         1.1698    3.5681    0.0096 C.2       1 <0>         0.1159
     19 N4          0.2728    4.3599   -0.6043 N.2       1 <0>        -0.4602
     20 C15         0.5682    5.6106   -0.3804 C.2       1 <0>         0.2210
     21 N5          1.6784    5.6835    0.3824 N.pl3     1 <0>        -0.5505
     22 H2          2.1258    6.5200    0.6988 H         1 <0>         0.4272
     23 C16        -0.2083    6.7932   -0.8995 C.3       1 <0>        -0.0111
     24 C17         0.7565    7.9381   -1.2201 C.3       1 <0>        -0.1503
     25 C18        -0.0428    9.1561   -1.6888 C.3       1 <0>         0.0011
     26 C19        -1.9470    8.4965   -0.3430 C.3       1 <0>        -0.0010
     27 C20        -1.2046    7.2588    0.1659 C.3       1 <0>        -0.1430
     28 C21         1.1830    2.0866    0.0020 C.ar      1 <0>        -0.0137
     29 C22         2.3954    1.3973   -0.0138 C.ar      1 <0>        -0.0302
     30 C23         2.4013    0.0176   -0.0212 C.ar      1 <0>        -0.1235
     31 C24         1.2076   -0.6821   -0.0136 C.ar      1 <0>        -0.0566
     32 C25         0.0021   -0.0041    0.0020 C.ar      1 <0>        -0.1872
     33 C26        -0.0166    1.3759    0.0096 C.ar      1 <0>        -0.0381
     34 C27        -1.2935   -0.7738    0.0103 C.3       1 <0>         0.5092
     35 F1         -1.7070   -1.0048   -1.3061 F         1 <0>        -0.1751
     36 F2         -1.1048   -1.9975    0.6614 F         1 <0>        -0.1749
     37 F3         -2.2715   -0.0334    0.6831 F         1 <0>        -0.1778
     38 H3          4.4087    0.8602    6.0185 H         1 <0>         0.0581
     39 H4          6.1812    0.9256    6.1677 H         1 <0>         0.0718
     40 H5          5.2866    2.3386    5.5583 H         1 <0>         0.0634
     41 H6          3.4027   -1.0077    4.3753 H         1 <0>         0.1179
     42 H7          3.4895   -3.4684    4.4051 H         1 <0>         0.1250
     43 H8          5.6556   -4.6261    4.2300 H         1 <0>         0.1251
     44 H9          7.7343   -3.3233    4.0173 H         1 <0>         0.1263
     45 H10         7.6467   -0.8628    3.9791 H         1 <0>         0.1251
     46 H11         3.5488    0.5712    3.2445 H         1 <0>         0.4146
     47 H12         6.2898    5.0208    2.4800 H         1 <0>         0.1726
     48 H13         4.3655    5.8004    1.1233 H         1 <0>         0.1356
     49 H14        -0.7479    6.5067   -1.8023 H         1 <0>         0.1257
     50 H15         1.3236    8.1972   -0.3260 H         1 <0>         0.0858
     51 H16         1.4415    7.6268   -2.0087 H         1 <0>         0.1213
     52 H17        -0.5988    8.9004   -2.5908 H         1 <0>         0.1369
     53 H18         0.6403    9.9778   -1.9042 H         1 <0>         0.1378
     54 H19        -2.4941    8.2439   -1.2512 H         1 <0>         0.1364
     55 H20        -2.6469    8.8391    0.4191 H         1 <0>         0.1377
     56 H21        -1.9207    6.4622    0.3675 H         1 <0>         0.1231
     57 H22        -0.6683    7.5072    1.0818 H         1 <0>         0.0887
     58 H23         3.3277    1.9424   -0.0198 H         1 <0>         0.1216
     59 H24         3.3394   -0.5172   -0.0334 H         1 <0>         0.1354
     60 H25         1.2172   -1.7620   -0.0202 H         1 <0>         0.1381
     61 H26        -0.9586    1.9042    0.0169 H         1 <0>         0.1371
     62 N6         -0.9804    9.5738   -0.6291 N.4       1 <0>        -0.5185
     63 H27        -1.4885   10.4109   -0.9378 H         1 <0>         0.4399
     64 H28        -0.4519    9.7895    0.2243 H         1 <0>         0.4320
@<TRIPOS>BOND
     1    1    2 1
     2    1   38 1
     3    1   39 1
     4    1   40 1
     5    2    3 1
     6    2    4 1
     7    2   10 1
     8    4    9 ar
     9    4    5 ar
    10    5    6 ar
    11    5   41 1
    12    6    7 ar
    13    6   42 1
    14    7    8 ar
    15    7   43 1
    16    8    9 ar
    17    8   44 1
    18    9   45 1
    19   10   11 1
    20   10   46 1
    21   11   16 ar
    22   11   12 ar
    23   12   13 ar
    24   13   14 ar
    25   13   47 1
    26   14   15 ar
    27   14   48 1
    28   15   16 ar
    29   15   17 1
    30   17   21 1
    31   17   18 2
    32   18   19 1
    33   18   28 1
    34   19   20 2
    35   20   21 1
    36   20   23 1
    37   21   22 1
    38   23   27 1
    39   23   24 1
    40   23   49 1
    41   24   25 1
    42   24   50 1
    43   24   51 1
    44   25   52 1
    45   25   53 1
    46   25   62 1
    47   26   27 1
    48   26   54 1
    49   26   55 1
    50   26   62 1
    51   27   56 1
    52   27   57 1
    53   28   33 ar
    54   28   29 ar
    55   29   30 ar
    56   29   58 1
    57   30   31 ar
    58   30   59 1
    59   31   32 ar
    60   31   60 1
    61   32   33 ar
    62   32   34 1
    63   33   61 1
    64   34   35 1
    65   34   36 1
    66   34   37 1
    67   62   63 1
    68   62   64 1
@<TRIPOS>MOLECULE
ZINC04617899
   64    68     0     0     0
SMALL
USER_CHARGES

@<TRIPOS>ATOM
      1 C1          6.4410    1.4394   -3.3352 C.3       1 <0>        -0.1576
      2 C2          5.3848    0.7981   -4.2374 C.3       1 <0>         0.2008
      3 H1          5.8241   -0.0471   -4.7671 H         1 <0>         0.1014
      4 C3          4.8919    1.8147   -5.2348 C.ar      1 <0>        -0.0994
      5 C4          3.9456    2.7495   -4.8587 C.ar      1 <0>        -0.1139
      6 C5          3.4967    3.6847   -5.7723 C.ar      1 <0>        -0.1139
      7 C6          3.9871    3.6791   -7.0648 C.ar      1 <0>        -0.1147
      8 C7          4.9299    2.7412   -7.4422 C.ar      1 <0>        -0.1142
      9 C8          5.3820    1.8088   -6.5273 C.ar      1 <0>        -0.1060
     10 N1          4.2621    0.3320   -3.4198 N.pl3     1 <0>        -0.6844
     11 C9          4.3138   -0.9139   -2.8190 C.ar      1 <0>         0.5816
     12 N2          5.3875   -1.6712   -2.9948 N.ar      1 <0>        -0.5610
     13 C10         5.4771   -2.8695   -2.4376 C.ar      1 <0>         0.2078
     14 C11         4.4329   -3.3347   -1.6613 C.ar      1 <0>        -0.2924
     15 C12         3.3102   -2.5135   -1.4922 C.ar      1 <0>         0.2843
     16 N3          3.2879   -1.3201   -2.0888 N.ar      1 <0>        -0.5498
     17 C13         2.1696   -2.9632   -0.6737 C.2       1 <0>         0.0337
     18 C14         1.2475   -2.1632   -0.0210 C.2       1 <0>         0.1155
     19 N4          0.3842   -2.9790    0.6096 N.2       1 <0>        -0.4602
     20 C15         0.7093   -4.2212    0.3797 C.2       1 <0>         0.2210
     21 N5          1.8064   -4.2641   -0.4039 N.pl3     1 <0>        -0.5505
     22 H2          2.2703   -5.0882   -0.7289 H         1 <0>         0.4273
     23 C16        -0.0249   -5.4244    0.9132 C.3       1 <0>        -0.0110
     24 C17         0.9766   -6.5426    1.2151 C.3       1 <0>        -0.1504
     25 C18         0.2198   -7.7817    1.6986 C.3       1 <0>         0.0012
     26 C19        -1.7267   -7.1745    0.3892 C.3       1 <0>        -0.0012
     27 C20        -1.0280   -5.9172   -0.1334 C.3       1 <0>        -0.1430
     28 C21         1.2205   -0.6819   -0.0132 C.ar      1 <0>        -0.0134
     29 C22         2.4138    0.0402   -0.0207 C.ar      1 <0>        -0.0303
     30 C23         2.3822    1.4195   -0.0130 C.ar      1 <0>        -0.1252
     31 C24         1.1701    2.0865    0.0021 C.ar      1 <0>        -0.0572
     32 C25        -0.0166    1.3759    0.0096 C.ar      1 <0>        -0.1870
     33 C26         0.0021   -0.0041    0.0020 C.ar      1 <0>        -0.0377
     34 C27        -1.3327    2.1100    0.0198 C.3       1 <0>         0.5091
     35 F1         -1.7337    2.3300    1.3419 F         1 <0>        -0.1751
     36 F2         -1.1865    3.3383   -0.6337 F         1 <0>        -0.1750
     37 F3         -2.2995    1.3432   -0.6393 F         1 <0>        -0.1776
     38 H3          6.7975    0.7042   -2.6138 H         1 <0>         0.0644
     39 H4          7.2764    1.7863   -3.9435 H         1 <0>         0.0716
     40 H5          6.0017    2.2847   -2.8055 H         1 <0>         0.0589
     41 H6          3.5594    2.7513   -3.8501 H         1 <0>         0.1186
     42 H7          2.7604    4.4177   -5.4774 H         1 <0>         0.1253
     43 H8          3.6339    4.4076   -7.7795 H         1 <0>         0.1252
     44 H9          5.3130    2.7368   -8.4520 H         1 <0>         0.1263
     45 H10         6.1183    1.0758   -6.8223 H         1 <0>         0.1250
     46 H11         3.4824    0.8965   -3.2996 H         1 <0>         0.4146
     47 H12         6.3572   -3.4769   -2.5889 H         1 <0>         0.1726
     48 H13         4.4812   -4.3080   -1.1956 H         1 <0>         0.1357
     49 H14        -0.5548   -5.1525    1.8261 H         1 <0>         0.1258
     50 H15         1.5336   -6.7863    0.3104 H         1 <0>         0.0859
     51 H16         1.6677   -6.2126    1.9907 H         1 <0>         0.1213
     52 H17        -0.3258   -7.5410    2.6109 H         1 <0>         0.1369
     53 H18         0.9290   -8.5845    1.9008 H         1 <0>         0.1379
     54 H19        -2.2633   -6.9366    1.3077 H         1 <0>         0.1365
     55 H20        -2.4314   -7.5362   -0.3596 H         1 <0>         0.1377
     56 H21        -1.7693   -5.1404   -0.3211 H         1 <0>         0.1232
     57 H22        -0.5026   -6.1511   -1.0593 H         1 <0>         0.0887
     58 H23         3.3606   -0.4793   -0.0322 H         1 <0>         0.1219
     59 H24         3.3056    1.9797   -0.0188 H         1 <0>         0.1356
     60 H25         1.1504    3.1663    0.0081 H         1 <0>         0.1384
     61 H26        -0.9251   -0.5578    0.0075 H         1 <0>         0.1371
     62 N6         -0.7260   -8.2250    0.6566 N.4       1 <0>        -0.5185
     63 H27        -1.2052   -9.0756    0.9746 H         1 <0>         0.4400
     64 H28        -0.2081   -8.4264   -0.2067 H         1 <0>         0.4319
@<TRIPOS>BOND
     1    1    2 1
     2    1   38 1
     3    1   39 1
     4    1   40 1
     5    2    3 1
     6    2    4 1
     7    2   10 1
     8    4    9 ar
     9    4    5 ar
    10    5    6 ar
    11    5   41 1
    12    6    7 ar
    13    6   42 1
    14    7    8 ar
    15    7   43 1
    16    8    9 ar
    17    8   44 1
    18    9   45 1
    19   10   11 1
    20   10   46 1
    21   11   16 ar
    22   11   12 ar
    23   12   13 ar
    24   13   14 ar
    25   13   47 1
    26   14   15 ar
    27   14   48 1
    28   15   16 ar
    29   15   17 1
    30   17   21 1
    31   17   18 2
    32   18   19 1
    33   18   28 1
    34   19   20 2
    35   20   21 1
    36   20   23 1
    37   21   22 1
    38   23   27 1
    39   23   24 1
    40   23   49 1
    41   24   25 1
    42   24   50 1
    43   24   51 1
    44   25   52 1
    45   25   53 1
    46   25   62 1
    47   26   27 1
    48   26   54 1
    49   26   55 1
    50   26   62 1
    51   27   56 1
    52   27   57 1
    53   28   33 ar
    54   28   29 ar
    55   29   30 ar
    56   29   58 1
    57   30   31 ar
    58   30   59 1
    59   31   32 ar
    60   31   60 1
    61   32   33 ar
    62   32   34 1
    63   33   61 1
    64   34   35 1
    65   34   36 1
    66   34   37 1
    67   62   63 1
    68   62   64 1
@<TRIPOS>MOLECULE
ZINC04617899
   64    68     0     0     0
SMALL
USER_CHARGES

@<TRIPOS>ATOM
      1 C1          6.4410    1.4394   -3.3352 C.3       1 <0>        -0.1576
      2 C2          5.3848    0.7981   -4.2374 C.3       1 <0>         0.2008
      3 H1          5.8241   -0.0471   -4.7671 H         1 <0>         0.1014
      4 C3          4.8919    1.8147   -5.2348 C.ar      1 <0>        -0.0994
      5 C4          3.9456    2.7495   -4.8587 C.ar      1 <0>        -0.1139
      6 C5          3.4967    3.6847   -5.7723 C.ar      1 <0>        -0.1139
      7 C6          3.9871    3.6791   -7.0648 C.ar      1 <0>        -0.1147
      8 C7          4.9299    2.7412   -7.4422 C.ar      1 <0>        -0.1142
      9 C8          5.3820    1.8088   -6.5273 C.ar      1 <0>        -0.1060
     10 N1          4.2621    0.3320   -3.4198 N.pl3     1 <0>        -0.6844
     11 C9          4.3138   -0.9139   -2.8190 C.ar      1 <0>         0.5816
     12 N2          5.3875   -1.6712   -2.9948 N.ar      1 <0>        -0.5610
     13 C10         5.4771   -2.8695   -2.4376 C.ar      1 <0>         0.2078
     14 C11         4.4329   -3.3347   -1.6613 C.ar      1 <0>        -0.2924
     15 C12         3.3102   -2.5135   -1.4922 C.ar      1 <0>         0.2843
     16 N3          3.2879   -1.3201   -2.0888 N.ar      1 <0>        -0.5498
     17 C13         2.1696   -2.9632   -0.6737 C.2       1 <0>         0.0337
     18 C14         1.2475   -2.1632   -0.0210 C.2       1 <0>         0.1155
     19 N4          0.3842   -2.9790    0.6096 N.2       1 <0>        -0.4602
     20 C15         0.7093   -4.2212    0.3797 C.2       1 <0>         0.2210
     21 N5          1.8064   -4.2641   -0.4039 N.pl3     1 <0>        -0.5505
     22 H2          2.2703   -5.0882   -0.7289 H         1 <0>         0.4273
     23 C16        -0.0249   -5.4244    0.9132 C.3       1 <0>        -0.0110
     24 C17         0.9766   -6.5426    1.2151 C.3       1 <0>        -0.1504
     25 C18         0.2198   -7.7817    1.6986 C.3       1 <0>         0.0012
     26 C19        -1.7267   -7.1745    0.3892 C.3       1 <0>        -0.0012
     27 C20        -1.0280   -5.9172   -0.1334 C.3       1 <0>        -0.1430
     28 C21         1.2205   -0.6819   -0.0132 C.ar      1 <0>        -0.0134
     29 C22         2.4138    0.0402   -0.0207 C.ar      1 <0>        -0.0303
     30 C23         2.3822    1.4195   -0.0130 C.ar      1 <0>        -0.1252
     31 C24         1.1701    2.0865    0.0021 C.ar      1 <0>        -0.0572
     32 C25        -0.0166    1.3759    0.0096 C.ar      1 <0>        -0.1870
     33 C26         0.0021   -0.0041    0.0020 C.ar      1 <0>        -0.0377
     34 C27        -1.3327    2.1100    0.0198 C.3       1 <0>         0.5091
     35 F1         -1.7337    2.3300    1.3419 F         1 <0>        -0.1751
     36 F2         -1.1865    3.3383   -0.6337 F         1 <0>        -0.1750
     37 F3         -2.2995    1.3432   -0.6393 F         1 <0>        -0.1776
     38 H3          6.7975    0.7042   -2.6138 H         1 <0>         0.0644
     39 H4          7.2764    1.7863   -3.9435 H         1 <0>         0.0716
     40 H5          6.0017    2.2847   -2.8055 H         1 <0>         0.0589
     41 H6          3.5594    2.7513   -3.8501 H         1 <0>         0.1186
     42 H7          2.7604    4.4177   -5.4774 H         1 <0>         0.1253
     43 H8          3.6339    4.4076   -7.7795 H         1 <0>         0.1252
     44 H9          5.3130    2.7368   -8.4520 H         1 <0>         0.1263
     45 H10         6.1183    1.0758   -6.8223 H         1 <0>         0.1250
     46 H11         3.4824    0.8965   -3.2996 H         1 <0>         0.4146
     47 H12         6.3572   -3.4769   -2.5889 H         1 <0>         0.1726
     48 H13         4.4812   -4.3080   -1.1956 H         1 <0>         0.1357
     49 H14        -0.5548   -5.1525    1.8261 H         1 <0>         0.1258
     50 H15         1.5336   -6.7863    0.3104 H         1 <0>         0.0859
     51 H16         1.6677   -6.2126    1.9907 H         1 <0>         0.1213
     52 H17        -0.3258   -7.5410    2.6109 H         1 <0>         0.1369
     53 H18         0.9290   -8.5845    1.9008 H         1 <0>         0.1379
     54 H19        -2.2633   -6.9366    1.3077 H         1 <0>         0.1365
     55 H20        -2.4314   -7.5362   -0.3596 H         1 <0>         0.1377
     56 H21        -1.7693   -5.1404   -0.3211 H         1 <0>         0.1232
     57 H22        -0.5026   -6.1511   -1.0593 H         1 <0>         0.0887
     58 H23         3.3606   -0.4793   -0.0322 H         1 <0>         0.1219
     59 H24         3.3056    1.9797   -0.0188 H         1 <0>         0.1356
     60 H25         1.1504    3.1663    0.0081 H         1 <0>         0.1384
     61 H26        -0.9251   -0.5578    0.0075 H         1 <0>         0.1371
     62 N6         -0.7260   -8.2250    0.6566 N.4       1 <0>        -0.5185
     63 H27        -1.2052   -9.0756    0.9746 H         1 <0>         0.4400
     64 H28        -0.2081   -8.4264   -0.2067 H         1 <0>         0.4319
@<TRIPOS>BOND
     1    1    2 1
     2    1   38 1
     3    1   39 1
     4    1   40 1
     5    2    3 1
     6    2    4 1
     7    2   10 1
     8    4    9 ar
     9    4    5 ar
    10    5    6 ar
    11    5   41 1
    12    6    7 ar
    13    6   42 1
    14    7    8 ar
    15    7   43 1
    16    8    9 ar
    17    8   44 1
    18    9   45 1
    19   10   11 1
    20   10   46 1
    21   11   16 ar
    22   11   12 ar
    23   12   13 ar
    24   13   14 ar
    25   13   47 1
    26   14   15 ar
    27   14   48 1
    28   15   16 ar
    29   15   17 1
    30   17   21 1
    31   17   18 2
    32   18   19 1
    33   18   28 1
    34   19   20 2
    35   20   21 1
    36   20   23 1
    37   21   22 1
    38   23   27 1
    39   23   24 1
    40   23   49 1
    41   24   25 1
    42   24   50 1
    43   24   51 1
    44   25   52 1
    45   25   53 1
    46   25   62 1
    47   26   27 1
    48   26   54 1
    49   26   55 1
    50   26   62 1
    51   27   56 1
    52   27   57 1
    53   28   33 ar
    54   28   29 ar
    55   29   30 ar
    56   29   58 1
    57   30   31 ar
    58   30   59 1
    59   31   32 ar
    60   31   60 1
    61   32   33 ar
    62   32   34 1
    63   33   61 1
    64   34   35 1
    65   34   36 1
    66   34   37 1
    67   62   63 1
    68   62   64 1
@<TRIPOS>MOLECULE
ZINC04617900
   48    51     0     0     0
SMALL
USER_CHARGES

@<TRIPOS>ATOM
      1 C1         -1.2213    1.7482    0.0173 C.ar      1 <0>        -0.1247
      2 C2         -1.2464    3.1281    0.0298 C.ar      1 <0>        -0.0314
      3 C3         -0.0501    3.8444    0.0223 C.ar      1 <0>        -0.0141
      4 C4          1.1655    3.1607    0.0074 C.ar      1 <0>        -0.0359
      5 C5          1.1778    1.7811    0.0004 C.ar      1 <0>        -0.1870
      6 C6         -0.0126    1.0758    0.0080 C.ar      1 <0>        -0.0590
      7 C7          2.4904    1.0408   -0.0151 C.3       1 <0>         0.5091
      8 F1          2.2486   -0.3371   -0.0194 F         1 <0>        -0.1749
      9 F2          3.2100    1.3916   -1.1624 F         1 <0>        -0.1765
     10 F3          3.2310    1.3808    1.1220 F         1 <0>        -0.1758
     11 C8         -0.0702    5.3258    0.0304 C.2       1 <0>         0.1165
     12 C9         -1.0006    6.1368   -0.5964 C.2       1 <0>         0.0321
     13 N1         -0.6266    7.4331   -0.3194 N.pl3     1 <0>        -0.5505
     14 H1         -1.0927    8.2627   -0.6269 H         1 <0>         0.4275
     15 C10         0.4846    7.3770    0.4433 C.2       1 <0>         0.2220
     16 N2          0.8087    6.1310    0.6529 N.2       1 <0>        -0.4602
     17 C11         1.2335    8.5711    0.9764 C.3       1 <0>        -0.0113
     18 C12         0.2425    9.6899    1.3092 C.3       1 <0>        -0.1504
     19 C13         1.0134   10.9205    1.7924 C.3       1 <0>         0.0011
     20 C14         2.9328   10.3201    0.4405 C.3       1 <0>        -0.0011
     21 C15         2.2193    9.0716   -0.0830 C.3       1 <0>        -0.1430
     22 C16        -2.1578    5.7009   -1.3989 C.ar      1 <0>         0.2846
     23 C17        -3.2803    6.5288   -1.5383 C.ar      1 <0>        -0.2908
     24 C18        -4.3401    6.0766   -2.3003 C.ar      1 <0>         0.2088
     25 N3         -4.2659    4.8840   -2.8723 N.ar      1 <0>        -0.5658
     26 C19        -3.1927    4.1205   -2.7247 C.ar      1 <0>         0.5809
     27 N4         -2.1517    4.5144   -2.0088 N.ar      1 <0>        -0.5497
     28 N5         -3.1571    2.8814   -3.3405 N.pl3     1 <0>        -0.8126
     29 H2         -2.1473    1.1924    0.0187 H         1 <0>         0.1364
     30 H3         -2.1907    3.6520    0.0413 H         1 <0>         0.1216
     31 H4          2.0953    3.7101    0.0012 H         1 <0>         0.1351
     32 H5          0.0021   -0.0041    0.0020 H         1 <0>         0.1414
     33 H6          1.7791    8.2869    1.8762 H         1 <0>         0.1260
     34 H7         -0.3300    9.9460    0.4178 H         1 <0>         0.0859
     35 H8         -0.4355    9.3540    2.0938 H         1 <0>         0.1214
     36 H9          1.5748   10.6674    2.6917 H         1 <0>         0.1370
     37 H10         0.3115   11.7238    2.0166 H         1 <0>         0.1379
     38 H11         3.4852   10.0698    1.3462 H         1 <0>         0.1365
     39 H12         3.6251   10.6874   -0.3171 H         1 <0>         0.1378
     40 H13         2.9536    8.2940   -0.2931 H         1 <0>         0.1232
     41 H14         1.6779    9.3180   -0.9964 H         1 <0>         0.0887
     42 H15        -3.3158    7.4970   -1.0611 H         1 <0>         0.1373
     43 H16        -5.2205    6.6890   -2.4280 H         1 <0>         0.1740
     44 H17        -3.9115    2.5820   -3.8717 H         1 <0>         0.4202
     45 H18        -2.3779    2.3124   -3.2408 H         1 <0>         0.4179
     46 N6          1.9416   11.3716    0.7382 N.4       1 <0>        -0.5185
     47 H19         2.4303   12.2166    1.0567 H         1 <0>         0.4400
     48 H20         1.4087   11.5848   -0.1132 H         1 <0>         0.4320
@<TRIPOS>BOND
     1    1    6 ar
     2    1    2 ar
     3    1   29 1
     4    2    3 ar
     5    2   30 1
     6    3    4 ar
     7    3   11 1
     8    4    5 ar
     9    4   31 1
    10    5    6 ar
    11    5    7 1
    12    6   32 1
    13    7    8 1
    14    7    9 1
    15    7   10 1
    16   11   16 1
    17   11   12 2
    18   12   13 1
    19   12   22 1
    20   13   14 1
    21   13   15 1
    22   15   16 2
    23   15   17 1
    24   17   21 1
    25   17   18 1
    26   17   33 1
    27   18   19 1
    28   18   34 1
    29   18   35 1
    30   19   36 1
    31   19   37 1
    32   19   46 1
    33   20   21 1
    34   20   38 1
    35   20   39 1
    36   20   46 1
    37   21   40 1
    38   21   41 1
    39   22   27 ar
    40   22   23 ar
    41   23   24 ar
    42   23   42 1
    43   24   25 ar
    44   24   43 1
    45   25   26 ar
    46   26   27 ar
    47   26   28 1
    48   28   44 1
    49   28   45 1
    50   46   47 1
    51   46   48 1
@<TRIPOS>MOLECULE
ZINC04617900
   48    51     0     0     0
SMALL
USER_CHARGES

@<TRIPOS>ATOM
      1 C1         -1.2213    1.7482    0.0173 C.ar      1 <0>        -0.1247
      2 C2         -1.2464    3.1281    0.0298 C.ar      1 <0>        -0.0314
      3 C3         -0.0501    3.8444    0.0223 C.ar      1 <0>        -0.0141
      4 C4          1.1655    3.1607    0.0074 C.ar      1 <0>        -0.0359
      5 C5          1.1778    1.7811    0.0004 C.ar      1 <0>        -0.1870
      6 C6         -0.0126    1.0758    0.0080 C.ar      1 <0>        -0.0590
      7 C7          2.4904    1.0408   -0.0151 C.3       1 <0>         0.5091
      8 F1          2.2486   -0.3371   -0.0194 F         1 <0>        -0.1749
      9 F2          3.2100    1.3916   -1.1624 F         1 <0>        -0.1765
     10 F3          3.2310    1.3808    1.1220 F         1 <0>        -0.1758
     11 C8         -0.0702    5.3258    0.0304 C.2       1 <0>         0.1165
     12 C9         -1.0006    6.1368   -0.5964 C.2       1 <0>         0.0321
     13 N1         -0.6266    7.4331   -0.3194 N.pl3     1 <0>        -0.5505
     14 H1         -1.0927    8.2627   -0.6269 H         1 <0>         0.4275
     15 C10         0.4846    7.3770    0.4433 C.2       1 <0>         0.2220
     16 N2          0.8087    6.1310    0.6529 N.2       1 <0>        -0.4602
     17 C11         1.2335    8.5711    0.9764 C.3       1 <0>        -0.0113
     18 C12         0.2425    9.6899    1.3092 C.3       1 <0>        -0.1504
     19 C13         1.0134   10.9205    1.7924 C.3       1 <0>         0.0011
     20 C14         2.9328   10.3201    0.4405 C.3       1 <0>        -0.0011
     21 C15         2.2193    9.0716   -0.0830 C.3       1 <0>        -0.1430
     22 C16        -2.1578    5.7009   -1.3989 C.ar      1 <0>         0.2846
     23 C17        -3.2803    6.5288   -1.5383 C.ar      1 <0>        -0.2908
     24 C18        -4.3401    6.0766   -2.3003 C.ar      1 <0>         0.2088
     25 N3         -4.2659    4.8840   -2.8723 N.ar      1 <0>        -0.5658
     26 C19        -3.1927    4.1205   -2.7247 C.ar      1 <0>         0.5809
     27 N4         -2.1517    4.5144   -2.0088 N.ar      1 <0>        -0.5497
     28 N5         -3.1571    2.8814   -3.3405 N.pl3     1 <0>        -0.8126
     29 H2         -2.1473    1.1924    0.0187 H         1 <0>         0.1364
     30 H3         -2.1907    3.6520    0.0413 H         1 <0>         0.1216
     31 H4          2.0953    3.7101    0.0012 H         1 <0>         0.1351
     32 H5          0.0021   -0.0041    0.0020 H         1 <0>         0.1414
     33 H6          1.7791    8.2869    1.8762 H         1 <0>         0.1260
     34 H7         -0.3300    9.9460    0.4178 H         1 <0>         0.0859
     35 H8         -0.4355    9.3540    2.0938 H         1 <0>         0.1214
     36 H9          1.5748   10.6674    2.6917 H         1 <0>         0.1370
     37 H10         0.3115   11.7238    2.0166 H         1 <0>         0.1379
     38 H11         3.4852   10.0698    1.3462 H         1 <0>         0.1365
     39 H12         3.6251   10.6874   -0.3171 H         1 <0>         0.1378
     40 H13         2.9536    8.2940   -0.2931 H         1 <0>         0.1232
     41 H14         1.6779    9.3180   -0.9964 H         1 <0>         0.0887
     42 H15        -3.3158    7.4970   -1.0611 H         1 <0>         0.1373
     43 H16        -5.2205    6.6890   -2.4280 H         1 <0>         0.1740
     44 H17        -3.9115    2.5820   -3.8717 H         1 <0>         0.4202
     45 H18        -2.3779    2.3124   -3.2408 H         1 <0>         0.4179
     46 N6          1.9416   11.3716    0.7382 N.4       1 <0>        -0.5185
     47 H19         2.4303   12.2166    1.0567 H         1 <0>         0.4400
     48 H20         1.4087   11.5848   -0.1132 H         1 <0>         0.4320
@<TRIPOS>BOND
     1    1    6 ar
     2    1    2 ar
     3    1   29 1
     4    2    3 ar
     5    2   30 1
     6    3    4 ar
     7    3   11 1
     8    4    5 ar
     9    4   31 1
    10    5    6 ar
    11    5    7 1
    12    6   32 1
    13    7    8 1
    14    7    9 1
    15    7   10 1
    16   11   16 1
    17   11   12 2
    18   12   13 1
    19   12   22 1
    20   13   14 1
    21   13   15 1
    22   15   16 2
    23   15   17 1
    24   17   21 1
    25   17   18 1
    26   17   33 1
    27   18   19 1
    28   18   34 1
    29   18   35 1
    30   19   36 1
    31   19   37 1
    32   19   46 1
    33   20   21 1
    34   20   38 1
    35   20   39 1
    36   20   46 1
    37   21   40 1
    38   21   41 1
    39   22   27 ar
    40   22   23 ar
    41   23   24 ar
    42   23   42 1
    43   24   25 ar
    44   24   43 1
    45   25   26 ar
    46   26   27 ar
    47   26   28 1
    48   28   44 1
    49   28   45 1
    50   46   47 1
    51   46   48 1
@<TRIPOS>MOLECULE
ZINC04617901
   65    69     0     0     0
SMALL
USER_CHARGES

@<TRIPOS>ATOM
      1 C1         -2.5749   -2.7553   -7.4908 C.3       1 <0>         0.0251
      2 O1         -3.2180   -2.6939   -6.2161 O.3       1 <0>        -0.3147
      3 C2         -3.4788   -1.4576   -5.7156 C.ar      1 <0>         0.1426
      4 C3         -4.1012   -1.3242   -4.4829 C.ar      1 <0>        -0.1538
      5 C4         -4.3648   -0.0665   -3.9760 C.ar      1 <0>        -0.0556
      6 C5         -4.0089    1.0589   -4.6962 C.ar      1 <0>        -0.1579
      7 C6         -3.3936    0.9286   -5.9275 C.ar      1 <0>        -0.0550
      8 C7         -3.1227   -0.3269   -6.4362 C.ar      1 <0>        -0.2112
      9 C8         -4.2977    2.4298   -4.1409 C.3       1 <0>         0.1850
     10 N1         -3.1580    2.8819   -3.3391 N.pl3     1 <0>        -0.6862
     11 C9         -3.1929    4.1213   -2.7238 C.ar      1 <0>         0.5782
     12 N2         -4.2662    4.8852   -2.8714 N.ar      1 <0>        -0.5624
     13 C10        -4.3402    6.0775   -2.2992 C.ar      1 <0>         0.2081
     14 C11        -3.2800    6.5293   -1.5368 C.ar      1 <0>        -0.2931
     15 C12        -2.1580    5.7014   -1.3976 C.ar      1 <0>         0.2842
     16 N3         -2.1523    4.5145   -2.0076 N.ar      1 <0>        -0.5495
     17 C13        -1.0005    6.1370   -0.5954 C.2       1 <0>         0.0337
     18 C14        -0.0702    5.3258    0.0314 C.2       1 <0>         0.1157
     19 N4          0.8085    6.1308    0.6543 N.2       1 <0>        -0.4603
     20 C15         0.4852    7.3769    0.4439 C.2       1 <0>         0.2206
     21 N5         -0.6261    7.4332   -0.3186 N.pl3     1 <0>        -0.5506
     22 H1         -1.0921    8.2628   -0.6261 H         1 <0>         0.4272
     23 C16         1.2349    8.5708    0.9764 C.3       1 <0>        -0.0110
     24 C17         0.2445    9.6903    1.3089 C.3       1 <0>        -0.1504
     25 C18         1.0160   10.9207    1.7914 C.3       1 <0>         0.0011
     26 C19         2.9349   10.3188    0.4394 C.3       1 <0>        -0.0011
     27 C20         2.2206    9.0704   -0.0834 C.3       1 <0>        -0.1430
     28 C21        -0.0501    3.8444    0.0227 C.ar      1 <0>        -0.0137
     29 C22        -1.2468    3.1278    0.0298 C.ar      1 <0>        -0.0303
     30 C23        -1.2217    1.7485    0.0173 C.ar      1 <0>        -0.1237
     31 C24        -0.0126    1.0758    0.0080 C.ar      1 <0>        -0.0587
     32 C25         1.1774    1.7809    0.0004 C.ar      1 <0>        -0.1872
     33 C26         1.1651    3.1609    0.0079 C.ar      1 <0>        -0.0365
     34 C27         2.4900    1.0406   -0.0156 C.3       1 <0>         0.5090
     35 F1          2.2482   -0.3373   -0.0203 F         1 <0>        -0.1749
     36 F2          3.2094    1.3918   -1.1629 F         1 <0>        -0.1768
     37 F3          3.2308    1.3802    1.1215 F         1 <0>        -0.1760
     38 H2         -2.4257   -3.7976   -7.7727 H         1 <0>         0.1042
     39 H3         -3.1990   -2.2630   -8.2367 H         1 <0>         0.0579
     40 H4         -1.6096   -2.2521   -7.4354 H         1 <0>         0.0573
     41 H5         -4.3797   -2.2030   -3.9202 H         1 <0>         0.1349
     42 H6         -4.8490    0.0379   -3.0163 H         1 <0>         0.1314
     43 H7         -3.1209    1.8091   -6.4903 H         1 <0>         0.1257
     44 H8         -2.6381   -0.4281   -7.3960 H         1 <0>         0.1313
     45 H9         -5.1887    2.3877   -3.5145 H         1 <0>         0.0789
     46 H10        -4.4635    3.1269   -4.9622 H         1 <0>         0.0768
     47 H11        -2.3789    2.3127   -3.2395 H         1 <0>         0.4169
     48 H12        -5.2204    6.6901   -2.4269 H         1 <0>         0.1724
     49 H13        -3.3153    7.4974   -1.0594 H         1 <0>         0.1355
     50 H14         1.7805    8.2867    1.8762 H         1 <0>         0.1257
     51 H15        -0.3281    9.9463    0.4175 H         1 <0>         0.0859
     52 H16        -0.4335    9.3550    2.0938 H         1 <0>         0.1213
     53 H17         1.5775   10.6677    2.6908 H         1 <0>         0.1369
     54 H18         0.3146   11.7244    2.0155 H         1 <0>         0.1379
     55 H19         3.4874   10.0686    1.3451 H         1 <0>         0.1364
     56 H20         3.6272   10.6853   -0.3185 H         1 <0>         0.1377
     57 H21         2.9545    8.2923   -0.2933 H         1 <0>         0.1230
     58 H22         1.6792    9.3167   -0.9968 H         1 <0>         0.0887
     59 H23        -2.1911    3.6518    0.0413 H         1 <0>         0.1218
     60 H24        -2.1476    1.1926    0.0191 H         1 <0>         0.1358
     61 H25         0.0021   -0.0041    0.0020 H         1 <0>         0.1407
     62 H26         2.0949    3.7103    0.0020 H         1 <0>         0.1346
     63 N6          1.9444   11.3709    0.7368 N.4       1 <0>        -0.5185
     64 H27         2.4335   12.2158    1.0550 H         1 <0>         0.4399
     65 H28         1.4114   11.5841   -0.1145 H         1 <0>         0.4319
@<TRIPOS>BOND
     1    1    2 1
     2    1   38 1
     3    1   39 1
     4    1   40 1
     5    2    3 1
     6    3    8 ar
     7    3    4 ar
     8    4    5 ar
     9    4   41 1
    10    5    6 ar
    11    5   42 1
    12    6    7 ar
    13    6    9 1
    14    7    8 ar
    15    7   43 1
    16    8   44 1
    17    9   10 1
    18    9   45 1
    19    9   46 1
    20   10   11 1
    21   10   47 1
    22   11   16 ar
    23   11   12 ar
    24   12   13 ar
    25   13   14 ar
    26   13   48 1
    27   14   15 ar
    28   14   49 1
    29   15   16 ar
    30   15   17 1
    31   17   21 1
    32   17   18 2
    33   18   19 1
    34   18   28 1
    35   19   20 2
    36   20   21 1
    37   20   23 1
    38   21   22 1
    39   23   27 1
    40   23   24 1
    41   23   50 1
    42   24   25 1
    43   24   51 1
    44   24   52 1
    45   25   53 1
    46   25   54 1
    47   25   63 1
    48   26   27 1
    49   26   55 1
    50   26   56 1
    51   26   63 1
    52   27   57 1
    53   27   58 1
    54   28   33 ar
    55   28   29 ar
    56   29   30 ar
    57   29   59 1
    58   30   31 ar
    59   30   60 1
    60   31   32 ar
    61   31   61 1
    62   32   33 ar
    63   32   34 1
    64   33   62 1
    65   34   35 1
    66   34   36 1
    67   34   37 1
    68   63   64 1
    69   63   65 1
@<TRIPOS>MOLECULE
ZINC04617901
   65    69     0     0     0
SMALL
USER_CHARGES

@<TRIPOS>ATOM
      1 C1         -2.5749   -2.7553   -7.4908 C.3       1 <0>         0.0251
      2 O1         -3.2180   -2.6939   -6.2161 O.3       1 <0>        -0.3147
      3 C2         -3.4788   -1.4576   -5.7156 C.ar      1 <0>         0.1426
      4 C3         -4.1012   -1.3242   -4.4829 C.ar      1 <0>        -0.1538
      5 C4         -4.3648   -0.0665   -3.9760 C.ar      1 <0>        -0.0556
      6 C5         -4.0089    1.0589   -4.6962 C.ar      1 <0>        -0.1579
      7 C6         -3.3936    0.9286   -5.9275 C.ar      1 <0>        -0.0550
      8 C7         -3.1227   -0.3269   -6.4362 C.ar      1 <0>        -0.2112
      9 C8         -4.2977    2.4298   -4.1409 C.3       1 <0>         0.1850
     10 N1         -3.1580    2.8819   -3.3391 N.pl3     1 <0>        -0.6862
     11 C9         -3.1929    4.1213   -2.7238 C.ar      1 <0>         0.5782
     12 N2         -4.2662    4.8852   -2.8714 N.ar      1 <0>        -0.5624
     13 C10        -4.3402    6.0775   -2.2992 C.ar      1 <0>         0.2081
     14 C11        -3.2800    6.5293   -1.5368 C.ar      1 <0>        -0.2931
     15 C12        -2.1580    5.7014   -1.3976 C.ar      1 <0>         0.2842
     16 N3         -2.1523    4.5145   -2.0076 N.ar      1 <0>        -0.5495
     17 C13        -1.0005    6.1370   -0.5954 C.2       1 <0>         0.0337
     18 C14        -0.0702    5.3258    0.0314 C.2       1 <0>         0.1157
     19 N4          0.8085    6.1308    0.6543 N.2       1 <0>        -0.4603
     20 C15         0.4852    7.3769    0.4439 C.2       1 <0>         0.2206
     21 N5         -0.6261    7.4332   -0.3186 N.pl3     1 <0>        -0.5506
     22 H1         -1.0921    8.2628   -0.6261 H         1 <0>         0.4272
     23 C16         1.2349    8.5708    0.9764 C.3       1 <0>        -0.0110
     24 C17         0.2445    9.6903    1.3089 C.3       1 <0>        -0.1504
     25 C18         1.0160   10.9207    1.7914 C.3       1 <0>         0.0011
     26 C19         2.9349   10.3188    0.4394 C.3       1 <0>        -0.0011
     27 C20         2.2206    9.0704   -0.0834 C.3       1 <0>        -0.1430
     28 C21        -0.0501    3.8444    0.0227 C.ar      1 <0>        -0.0137
     29 C22        -1.2468    3.1278    0.0298 C.ar      1 <0>        -0.0303
     30 C23        -1.2217    1.7485    0.0173 C.ar      1 <0>        -0.1237
     31 C24        -0.0126    1.0758    0.0080 C.ar      1 <0>        -0.0587
     32 C25         1.1774    1.7809    0.0004 C.ar      1 <0>        -0.1872
     33 C26         1.1651    3.1609    0.0079 C.ar      1 <0>        -0.0365
     34 C27         2.4900    1.0406   -0.0156 C.3       1 <0>         0.5090
     35 F1          2.2482   -0.3373   -0.0203 F         1 <0>        -0.1749
     36 F2          3.2094    1.3918   -1.1629 F         1 <0>        -0.1768
     37 F3          3.2308    1.3802    1.1215 F         1 <0>        -0.1760
     38 H2         -2.4257   -3.7976   -7.7727 H         1 <0>         0.1042
     39 H3         -3.1990   -2.2630   -8.2367 H         1 <0>         0.0579
     40 H4         -1.6096   -2.2521   -7.4354 H         1 <0>         0.0573
     41 H5         -4.3797   -2.2030   -3.9202 H         1 <0>         0.1349
     42 H6         -4.8490    0.0379   -3.0163 H         1 <0>         0.1314
     43 H7         -3.1209    1.8091   -6.4903 H         1 <0>         0.1257
     44 H8         -2.6381   -0.4281   -7.3960 H         1 <0>         0.1313
     45 H9         -5.1887    2.3877   -3.5145 H         1 <0>         0.0789
     46 H10        -4.4635    3.1269   -4.9622 H         1 <0>         0.0768
     47 H11        -2.3789    2.3127   -3.2395 H         1 <0>         0.4169
     48 H12        -5.2204    6.6901   -2.4269 H         1 <0>         0.1724
     49 H13        -3.3153    7.4974   -1.0594 H         1 <0>         0.1355
     50 H14         1.7805    8.2867    1.8762 H         1 <0>         0.1257
     51 H15        -0.3281    9.9463    0.4175 H         1 <0>         0.0859
     52 H16        -0.4335    9.3550    2.0938 H         1 <0>         0.1213
     53 H17         1.5775   10.6677    2.6908 H         1 <0>         0.1369
     54 H18         0.3146   11.7244    2.0155 H         1 <0>         0.1379
     55 H19         3.4874   10.0686    1.3451 H         1 <0>         0.1364
     56 H20         3.6272   10.6853   -0.3185 H         1 <0>         0.1377
     57 H21         2.9545    8.2923   -0.2933 H         1 <0>         0.1230
     58 H22         1.6792    9.3167   -0.9968 H         1 <0>         0.0887
     59 H23        -2.1911    3.6518    0.0413 H         1 <0>         0.1218
     60 H24        -2.1476    1.1926    0.0191 H         1 <0>         0.1358
     61 H25         0.0021   -0.0041    0.0020 H         1 <0>         0.1407
     62 H26         2.0949    3.7103    0.0020 H         1 <0>         0.1346
     63 N6          1.9444   11.3709    0.7368 N.4       1 <0>        -0.5185
     64 H27         2.4335   12.2158    1.0550 H         1 <0>         0.4399
     65 H28         1.4114   11.5841   -0.1145 H         1 <0>         0.4319
@<TRIPOS>BOND
     1    1    2 1
     2    1   38 1
     3    1   39 1
     4    1   40 1
     5    2    3 1
     6    3    8 ar
     7    3    4 ar
     8    4    5 ar
     9    4   41 1
    10    5    6 ar
    11    5   42 1
    12    6    7 ar
    13    6    9 1
    14    7    8 ar
    15    7   43 1
    16    8   44 1
    17    9   10 1
    18    9   45 1
    19    9   46 1
    20   10   11 1
    21   10   47 1
    22   11   16 ar
    23   11   12 ar
    24   12   13 ar
    25   13   14 ar
    26   13   48 1
    27   14   15 ar
    28   14   49 1
    29   15   16 ar
    30   15   17 1
    31   17   21 1
    32   17   18 2
    33   18   19 1
    34   18   28 1
    35   19   20 2
    36   20   21 1
    37   20   23 1
    38   21   22 1
    39   23   27 1
    40   23   24 1
    41   23   50 1
    42   24   25 1
    43   24   51 1
    44   24   52 1
    45   25   53 1
    46   25   54 1
    47   25   63 1
    48   26   27 1
    49   26   55 1
    50   26   56 1
    51   26   63 1
    52   27   57 1
    53   27   58 1
    54   28   33 ar
    55   28   29 ar
    56   29   30 ar
    57   29   59 1
    58   30   31 ar
    59   30   60 1
    60   31   32 ar
    61   31   61 1
    62   32   33 ar
    63   32   34 1
    64   33   62 1
    65   34   35 1
    66   34   36 1
    67   34   37 1
    68   63   64 1
    69   63   65 1
@<TRIPOS>MOLECULE
ZINC04617902
   44    47     0     0     0
SMALL
USER_CHARGES

@<TRIPOS>ATOM
      1 C1         -4.0027    2.2119   -4.4058 C.ar      1 <0>        -0.0693
      2 C2         -4.9549    1.8367   -5.3307 C.ar      1 <0>        -0.1511
      3 C3         -5.0409    0.5167   -5.7434 C.ar      1 <0>         0.1147
      4 C4         -4.1683   -0.4315   -5.2338 C.ar      1 <0>        -0.1535
      5 C5         -3.2096   -0.0651   -4.3120 C.ar      1 <0>        -0.0576
      6 C6         -3.1191    1.2622   -3.8935 C.ar      1 <0>        -0.0353
      7 C7         -2.0917    1.6608   -2.9035 C.2       1 <0>         0.0888
      8 C8         -1.4115    2.8650   -2.8681 C.2       1 <0>         0.0450
      9 N1         -0.5661    2.7957   -1.7836 N.pl3     1 <0>        -0.5578
     10 H1          0.0629    3.5098   -1.4764 H         1 <0>         0.4257
     11 C9         -0.7431    1.5858   -1.2116 C.2       1 <0>         0.2053
     12 N2         -1.6473    0.9182   -1.8731 N.2       1 <0>        -0.4492
     13 C10        -0.0127    1.0858    0.0080 C.3       1 <0>        -0.0150
     14 H2          0.0021   -0.0041    0.0020 H         1 <0>         0.1294
     15 C11        -0.7249    1.5805    1.2700 C.3       1 <0>        -0.1325
     16 C12         0.0572    1.1180    2.5024 C.3       1 <0>        -0.1459
     17 C13         1.4906    1.6476    2.4193 C.3       1 <0>        -0.0070
     18 C14         1.4227    1.6163   -0.0028 C.3       1 <0>        -0.0063
     19 C15        -1.5652    3.9977   -3.8012 C.ar      1 <0>         0.0123
     20 C16        -1.6176    3.7884   -5.1859 C.ar      1 <0>        -0.1422
     21 C17        -1.7662    4.8753   -6.0204 C.ar      1 <0>         0.1120
     22 N3         -1.8490    6.0988   -5.5322 N.ar      1 <0>        -0.4728
     23 C18        -1.7995    6.3412   -4.2356 C.ar      1 <0>         0.1097
     24 C19        -1.6571    5.3136   -3.3280 C.ar      1 <0>        -0.1663
     25 F1         -5.9787    0.1529   -6.6453 F         1 <0>        -0.1325
     26 H3         -3.9394    3.2401   -4.0814 H         1 <0>         0.1293
     27 H4         -5.6374    2.5720   -5.7305 H         1 <0>         0.1415
     28 H5         -4.2392   -1.4591   -5.5585 H         1 <0>         0.1422
     29 H6         -2.5300   -0.8048   -3.9154 H         1 <0>         0.1371
     30 H7         -0.7743    2.6693    1.2573 H         1 <0>         0.0815
     31 H8         -1.7340    1.1696    1.3035 H         1 <0>         0.1048
     32 H9          0.0730    0.0286    2.5357 H         1 <0>         0.0946
     33 H10        -0.4212    1.5026    3.4032 H         1 <0>         0.1185
     34 H11         2.0541    1.3081    3.2883 H         1 <0>         0.1377
     35 H12         1.4744    2.7373    2.3999 H         1 <0>         0.1305
     36 H13         1.9370    1.2542   -0.8930 H         1 <0>         0.1401
     37 H14         1.4071    2.7062   -0.0106 H         1 <0>         0.1261
     38 H15        -1.5459    2.7905   -5.5927 H         1 <0>         0.1415
     39 H16        -1.8117    4.7241   -7.0888 H         1 <0>         0.1655
     40 H17        -1.8711    7.3588   -3.8809 H         1 <0>         0.1626
     41 H18        -1.6173    5.5193   -2.2686 H         1 <0>         0.1322
     42 N4          2.1387    1.1388    1.1955 N.4       1 <0>        -0.5120
     43 H19         2.1283    0.1122    1.2091 H         1 <0>         0.4371
     44 H20         3.1098    1.4708    1.1640 H         1 <0>         0.4410
@<TRIPOS>BOND
     1    1    6 ar
     2    1    2 ar
     3    1   26 1
     4    2    3 ar
     5    2   27 1
     6    3    4 ar
     7    3   25 1
     8    4    5 ar
     9    4   28 1
    10    5    6 ar
    11    5   29 1
    12    6    7 1
    13    7   12 1
    14    7    8 2
    15    8    9 1
    16    8   19 1
    17    9   10 1
    18    9   11 1
    19   11   12 2
    20   11   13 1
    21   13   14 1
    22   13   18 1
    23   13   15 1
    24   15   16 1
    25   15   30 1
    26   15   31 1
    27   16   17 1
    28   16   32 1
    29   16   33 1
    30   17   34 1
    31   17   35 1
    32   17   42 1
    33   18   36 1
    34   18   37 1
    35   18   42 1
    36   19   24 ar
    37   19   20 ar
    38   20   21 ar
    39   20   38 1
    40   21   22 ar
    41   21   39 1
    42   22   23 ar
    43   23   24 ar
    44   23   40 1
    45   24   41 1
    46   42   43 1
    47   42   44 1
@<TRIPOS>MOLECULE
ZINC04617902
   44    47     0     0     0
SMALL
USER_CHARGES

@<TRIPOS>ATOM
      1 C1         -4.0027    2.2119   -4.4058 C.ar      1 <0>        -0.0693
      2 C2         -4.9549    1.8367   -5.3307 C.ar      1 <0>        -0.1511
      3 C3         -5.0409    0.5167   -5.7434 C.ar      1 <0>         0.1147
      4 C4         -4.1683   -0.4315   -5.2338 C.ar      1 <0>        -0.1535
      5 C5         -3.2096   -0.0651   -4.3120 C.ar      1 <0>        -0.0576
      6 C6         -3.1191    1.2622   -3.8935 C.ar      1 <0>        -0.0353
      7 C7         -2.0917    1.6608   -2.9035 C.2       1 <0>         0.0888
      8 C8         -1.4115    2.8650   -2.8681 C.2       1 <0>         0.0450
      9 N1         -0.5661    2.7957   -1.7836 N.pl3     1 <0>        -0.5578
     10 H1          0.0629    3.5098   -1.4764 H         1 <0>         0.4257
     11 C9         -0.7431    1.5858   -1.2116 C.2       1 <0>         0.2053
     12 N2         -1.6473    0.9182   -1.8731 N.2       1 <0>        -0.4492
     13 C10        -0.0127    1.0858    0.0080 C.3       1 <0>        -0.0150
     14 H2          0.0021   -0.0041    0.0020 H         1 <0>         0.1294
     15 C11        -0.7249    1.5805    1.2700 C.3       1 <0>        -0.1325
     16 C12         0.0572    1.1180    2.5024 C.3       1 <0>        -0.1459
     17 C13         1.4906    1.6476    2.4193 C.3       1 <0>        -0.0070
     18 C14         1.4227    1.6163   -0.0028 C.3       1 <0>        -0.0063
     19 C15        -1.5652    3.9977   -3.8012 C.ar      1 <0>         0.0123
     20 C16        -1.6176    3.7884   -5.1859 C.ar      1 <0>        -0.1422
     21 C17        -1.7662    4.8753   -6.0204 C.ar      1 <0>         0.1120
     22 N3         -1.8490    6.0988   -5.5322 N.ar      1 <0>        -0.4728
     23 C18        -1.7995    6.3412   -4.2356 C.ar      1 <0>         0.1097
     24 C19        -1.6571    5.3136   -3.3280 C.ar      1 <0>        -0.1663
     25 F1         -5.9787    0.1529   -6.6453 F         1 <0>        -0.1325
     26 H3         -3.9394    3.2401   -4.0814 H         1 <0>         0.1293
     27 H4         -5.6374    2.5720   -5.7305 H         1 <0>         0.1415
     28 H5         -4.2392   -1.4591   -5.5585 H         1 <0>         0.1422
     29 H6         -2.5300   -0.8048   -3.9154 H         1 <0>         0.1371
     30 H7         -0.7743    2.6693    1.2573 H         1 <0>         0.0815
     31 H8         -1.7340    1.1696    1.3035 H         1 <0>         0.1048
     32 H9          0.0730    0.0286    2.5357 H         1 <0>         0.0946
     33 H10        -0.4212    1.5026    3.4032 H         1 <0>         0.1185
     34 H11         2.0541    1.3081    3.2883 H         1 <0>         0.1377
     35 H12         1.4744    2.7373    2.3999 H         1 <0>         0.1305
     36 H13         1.9370    1.2542   -0.8930 H         1 <0>         0.1401
     37 H14         1.4071    2.7062   -0.0106 H         1 <0>         0.1261
     38 H15        -1.5459    2.7905   -5.5927 H         1 <0>         0.1415
     39 H16        -1.8117    4.7241   -7.0888 H         1 <0>         0.1655
     40 H17        -1.8711    7.3588   -3.8809 H         1 <0>         0.1626
     41 H18        -1.6173    5.5193   -2.2686 H         1 <0>         0.1322
     42 N4          2.1387    1.1388    1.1955 N.4       1 <0>        -0.5120
     43 H19         2.1283    0.1122    1.2091 H         1 <0>         0.4371
     44 H20         3.1098    1.4708    1.1640 H         1 <0>         0.4410
@<TRIPOS>BOND
     1    1    6 ar
     2    1    2 ar
     3    1   26 1
     4    2    3 ar
     5    2   27 1
     6    3    4 ar
     7    3   25 1
     8    4    5 ar
     9    4   28 1
    10    5    6 ar
    11    5   29 1
    12    6    7 1
    13    7   12 1
    14    7    8 2
    15    8    9 1
    16    8   19 1
    17    9   10 1
    18    9   11 1
    19   11   12 2
    20   11   13 1
    21   13   14 1
    22   13   18 1
    23   13   15 1
    24   15   16 1
    25   15   30 1
    26   15   31 1
    27   16   17 1
    28   16   32 1
    29   16   33 1
    30   17   34 1
    31   17   35 1
    32   17   42 1
    33   18   36 1
    34   18   37 1
    35   18   42 1
    36   19   24 ar
    37   19   20 ar
    38   20   21 ar
    39   20   38 1
    40   21   22 ar
    41   21   39 1
    42   22   23 ar
    43   23   24 ar
    44   23   40 1
    45   24   41 1
    46   42   43 1
    47   42   44 1
@<TRIPOS>MOLECULE
ZINC04617903
   44    48     0     0     0
SMALL
USER_CHARGES

@<TRIPOS>ATOM
      1 C1         -1.4451    6.9660   -0.2054 C.ar      1 <0>        -0.0721
      2 C2         -0.7269    5.8022   -0.3612 C.ar      1 <0>        -0.0636
      3 C3         -1.3939    4.5853   -0.5146 C.ar      1 <0>        -0.0265
      4 C4         -2.7896    4.5489   -0.5156 C.ar      1 <0>        -0.0829
      5 C5         -3.5087    5.7115   -0.3541 C.ar      1 <0>        -0.1076
      6 C6         -2.8417    6.9295   -0.2006 C.ar      1 <0>         0.0107
      7 C7         -3.6130    8.1784   -0.0338 C.2       1 <0>         0.2555
      8 N1         -4.9742    8.2704   -0.0126 N.pl3     1 <0>        -0.5505
      9 H1         -5.6219    7.5143   -0.1059 H         1 <0>         0.4314
     10 C8         -5.2886    9.5988    0.1613 C.2       1 <0>         0.0372
     11 C9         -4.0833   10.2786    0.2410 C.2       1 <0>         0.0813
     12 N2         -3.0973    9.3771    0.1235 N.2       1 <0>        -0.4480
     13 C10        -3.9144   11.7387    0.4287 C.ar      1 <0>        -0.0221
     14 C11        -2.9467   12.4302   -0.2994 C.ar      1 <0>        -0.0595
     15 C12        -2.7971   13.7905   -0.1254 C.ar      1 <0>        -0.1527
     16 C13        -3.5988   14.4678    0.7793 C.ar      1 <0>         0.1065
     17 C14        -4.5579   13.7841    1.5092 C.ar      1 <0>        -0.1514
     18 C15        -4.7188   12.4247    1.3380 C.ar      1 <0>        -0.0695
     19 F1         -3.4445   15.7990    0.9507 F         1 <0>        -0.1370
     20 C16        -6.6401   10.1834    0.2461 C.ar      1 <0>         0.0219
     21 C17        -6.9784   11.3267   -0.4909 C.ar      1 <0>        -0.1422
     22 C18        -8.2547   11.8362   -0.3847 C.ar      1 <0>         0.1083
     23 N3         -9.1480   11.2687    0.4042 N.ar      1 <0>        -0.4784
     24 C19        -8.8704   10.1945    1.1192 C.ar      1 <0>         0.1069
     25 C20        -7.6209    9.6147    1.0705 C.ar      1 <0>        -0.1651
     26 C21        -0.6214    3.3344   -0.6821 C.2       1 <0>         0.2737
     27 N4         -1.1412    2.0583   -0.8498 N.am      1 <0>        -0.6512
     28 H2         -2.0744    1.7957   -0.8828 H         1 <0>         0.4561
     29 C22        -0.0500    1.2621   -0.9539 C.2       1 <0>         0.5675
     30 O1         -0.0390    0.0561   -1.1099 O.2       1 <0>        -0.4699
     31 O2          1.0166    2.0713   -0.8561 O.3       1 <0>         0.0049
     32 N5          0.6733    3.2218   -0.7051 N.2       1 <0>        -0.3175
     33 H3         -0.9291    7.9074   -0.0871 H         1 <0>         0.1518
     34 H4          0.3527    5.8304   -0.3653 H         1 <0>         0.1482
     35 H5         -3.3051    3.6079   -0.6390 H         1 <0>         0.1330
     36 H6         -4.5883    5.6826   -0.3504 H         1 <0>         0.1296
     37 H7         -2.3181   11.9023   -1.0013 H         1 <0>         0.1381
     38 H8         -2.0509   14.3276   -0.6920 H         1 <0>         0.1401
     39 H9         -5.1801   14.3162    2.2135 H         1 <0>         0.1386
     40 H10        -5.4664   11.8927    1.9076 H         1 <0>         0.1288
     41 H11        -6.2514   11.7988   -1.1351 H         1 <0>         0.1402
     42 H12        -8.5264   12.7144   -0.9516 H         1 <0>         0.1625
     43 H13        -9.6328    9.7641    1.7516 H         1 <0>         0.1607
     44 H14        -7.4010    8.7356    1.6581 H         1 <0>         0.1344
@<TRIPOS>BOND
     1    1    6 ar
     2    1    2 ar
     3    1   33 1
     4    2    3 ar
     5    2   34 1
     6    3    4 ar
     7    3   26 1
     8    4    5 ar
     9    4   35 1
    10    5    6 ar
    11    5   36 1
    12    6    7 1
    13    7   12 2
    14    7    8 1
    15    8    9 1
    16    8   10 1
    17   10   11 2
    18   10   20 1
    19   11   12 1
    20   11   13 1
    21   13   18 ar
    22   13   14 ar
    23   14   15 ar
    24   14   37 1
    25   15   16 ar
    26   15   38 1
    27   16   17 ar
    28   16   19 1
    29   17   18 ar
    30   17   39 1
    31   18   40 1
    32   20   25 ar
    33   20   21 ar
    34   21   22 ar
    35   21   41 1
    36   22   23 ar
    37   22   42 1
    38   23   24 ar
    39   24   25 ar
    40   24   43 1
    41   25   44 1
    42   26   32 2
    43   26   27 1
    44   27   28 1
    45   27   29 am
    46   29   30 2
    47   29   31 1
    48   31   32 1
@<TRIPOS>MOLECULE
ZINC04617903
   44    48     0     0     0
SMALL
USER_CHARGES

@<TRIPOS>ATOM
      1 C1         -1.4451    6.9660   -0.2054 C.ar      1 <0>        -0.0721
      2 C2         -0.7269    5.8022   -0.3612 C.ar      1 <0>        -0.0636
      3 C3         -1.3939    4.5853   -0.5146 C.ar      1 <0>        -0.0265
      4 C4         -2.7896    4.5489   -0.5156 C.ar      1 <0>        -0.0829
      5 C5         -3.5087    5.7115   -0.3541 C.ar      1 <0>        -0.1076
      6 C6         -2.8417    6.9295   -0.2006 C.ar      1 <0>         0.0107
      7 C7         -3.6130    8.1784   -0.0338 C.2       1 <0>         0.2555
      8 N1         -4.9742    8.2704   -0.0126 N.pl3     1 <0>        -0.5505
      9 H1         -5.6219    7.5143   -0.1059 H         1 <0>         0.4314
     10 C8         -5.2886    9.5988    0.1613 C.2       1 <0>         0.0372
     11 C9         -4.0833   10.2786    0.2410 C.2       1 <0>         0.0813
     12 N2         -3.0973    9.3771    0.1235 N.2       1 <0>        -0.4480
     13 C10        -3.9144   11.7387    0.4287 C.ar      1 <0>        -0.0221
     14 C11        -2.9467   12.4302   -0.2994 C.ar      1 <0>        -0.0595
     15 C12        -2.7971   13.7905   -0.1254 C.ar      1 <0>        -0.1527
     16 C13        -3.5988   14.4678    0.7793 C.ar      1 <0>         0.1065
     17 C14        -4.5579   13.7841    1.5092 C.ar      1 <0>        -0.1514
     18 C15        -4.7188   12.4247    1.3380 C.ar      1 <0>        -0.0695
     19 F1         -3.4445   15.7990    0.9507 F         1 <0>        -0.1370
     20 C16        -6.6401   10.1834    0.2461 C.ar      1 <0>         0.0219
     21 C17        -6.9784   11.3267   -0.4909 C.ar      1 <0>        -0.1422
     22 C18        -8.2547   11.8362   -0.3847 C.ar      1 <0>         0.1083
     23 N3         -9.1480   11.2687    0.4042 N.ar      1 <0>        -0.4784
     24 C19        -8.8704   10.1945    1.1192 C.ar      1 <0>         0.1069
     25 C20        -7.6209    9.6147    1.0705 C.ar      1 <0>        -0.1651
     26 C21        -0.6214    3.3344   -0.6821 C.2       1 <0>         0.2737
     27 N4         -1.1412    2.0583   -0.8498 N.am      1 <0>        -0.6512
     28 H2         -2.0744    1.7957   -0.8828 H         1 <0>         0.4561
     29 C22        -0.0500    1.2621   -0.9539 C.2       1 <0>         0.5675
     30 O1         -0.0390    0.0561   -1.1099 O.2       1 <0>        -0.4699
     31 O2          1.0166    2.0713   -0.8561 O.3       1 <0>         0.0049
     32 N5          0.6733    3.2218   -0.7051 N.2       1 <0>        -0.3175
     33 H3         -0.9291    7.9074   -0.0871 H         1 <0>         0.1518
     34 H4          0.3527    5.8304   -0.3653 H         1 <0>         0.1482
     35 H5         -3.3051    3.6079   -0.6390 H         1 <0>         0.1330
     36 H6         -4.5883    5.6826   -0.3504 H         1 <0>         0.1296
     37 H7         -2.3181   11.9023   -1.0013 H         1 <0>         0.1381
     38 H8         -2.0509   14.3276   -0.6920 H         1 <0>         0.1401
     39 H9         -5.1801   14.3162    2.2135 H         1 <0>         0.1386
     40 H10        -5.4664   11.8927    1.9076 H         1 <0>         0.1288
     41 H11        -6.2514   11.7988   -1.1351 H         1 <0>         0.1402
     42 H12        -8.5264   12.7144   -0.9516 H         1 <0>         0.1625
     43 H13        -9.6328    9.7641    1.7516 H         1 <0>         0.1607
     44 H14        -7.4010    8.7356    1.6581 H         1 <0>         0.1344
@<TRIPOS>BOND
     1    1    6 ar
     2    1    2 ar
     3    1   33 1
     4    2    3 ar
     5    2   34 1
     6    3    4 ar
     7    3   26 1
     8    4    5 ar
     9    4   35 1
    10    5    6 ar
    11    5   36 1
    12    6    7 1
    13    7   12 2
    14    7    8 1
    15    8    9 1
    16    8   10 1
    17   10   11 2
    18   10   20 1
    19   11   12 1
    20   11   13 1
    21   13   18 ar
    22   13   14 ar
    23   14   15 ar
    24   14   37 1
    25   15   16 ar
    26   15   38 1
    27   16   17 ar
    28   16   19 1
    29   17   18 ar
    30   17   39 1
    31   18   40 1
    32   20   25 ar
    33   20   21 ar
    34   21   22 ar
    35   21   41 1
    36   22   23 ar
    37   22   42 1
    38   23   24 ar
    39   24   25 ar
    40   24   43 1
    41   25   44 1
    42   26   32 2
    43   26   27 1
    44   27   28 1
    45   27   29 am
    46   29   30 2
    47   29   31 1
    48   31   32 1
@<TRIPOS>MOLECULE
ZINC04617904
   43    46     0     0     0
SMALL
USER_CHARGES

@<TRIPOS>ATOM
      1 C1         -2.1859    2.3783    0.5642 C.3       1 <0>        -0.4978
      2 S1         -1.4691    2.2352   -1.0960 S.o       1 <0>         1.3316
      3 O1         -2.2446    1.3306   -1.8704 O.2       1 <0>        -0.8500
      4 C2          0.0481    1.3789   -0.8329 C.ar      1 <0>        -0.4537
      5 C3          1.2070    2.0920   -0.5822 C.ar      1 <0>        -0.0372
      6 C4          2.3993    1.4279   -0.3809 C.ar      1 <0>        -0.1279
      7 C5          2.4349    0.0335   -0.4307 C.ar      1 <0>         0.0177
      8 C6          1.2623   -0.6799   -0.6840 C.ar      1 <0>        -0.0900
      9 C7          0.0765   -0.0035   -0.8835 C.ar      1 <0>        -0.0506
     10 C8          3.7092   -0.6848   -0.2164 C.2       1 <0>         0.2582
     11 N1          4.9143   -0.0983    0.0380 N.pl3     1 <0>        -0.5502
     12 H1          5.0932    0.8828    0.1123 H         1 <0>         0.4317
     13 C9          5.8379   -1.1098    0.1732 C.2       1 <0>         0.0380
     14 C10         5.1466   -2.2967   -0.0076 C.2       1 <0>         0.0764
     15 N2          3.8602   -1.9898   -0.2351 N.2       1 <0>        -0.4496
     16 C11         5.7230   -3.6606    0.0469 C.ar      1 <0>         0.0037
     17 C12         5.0359   -4.6856    0.6971 C.ar      1 <0>        -0.0860
     18 C13         5.5772   -5.9538    0.7449 C.ar      1 <0>        -0.1052
     19 C14         6.7991   -6.2107    0.1491 C.ar      1 <0>        -0.1044
     20 C15         7.4860   -5.1980   -0.4983 C.ar      1 <0>        -0.0330
     21 C16         6.9515   -3.9256   -0.5566 C.ar      1 <0>        -0.0911
     22 Cl1         9.0187   -5.5291   -1.2432 Cl        1 <0>        -0.0650
     23 C17         7.2780   -0.9598    0.4546 C.ar      1 <0>         0.0218
     24 C18         7.9021   -1.7279    1.4473 C.ar      1 <0>        -0.1423
     25 C19         9.2512   -1.5581    1.6733 C.ar      1 <0>         0.1094
     26 N3          9.9503   -0.6809    0.9776 N.ar      1 <0>        -0.4772
     27 C20         9.4017    0.0661    0.0377 C.ar      1 <0>         0.1074
     28 C21         8.0599   -0.0411   -0.2590 C.ar      1 <0>        -0.1647
     29 H2         -1.5053    2.9367    1.2069 H         1 <0>         0.1119
     30 H3         -3.1403    2.9015    0.5040 H         1 <0>         0.1086
     31 H4         -2.3429    1.3827    0.9792 H         1 <0>         0.0820
     32 H5          1.1780    3.1709   -0.5440 H         1 <0>         0.1448
     33 H6          3.3031    1.9857   -0.1849 H         1 <0>         0.1251
     34 H7          1.2832   -1.7589   -0.7242 H         1 <0>         0.1411
     35 H8         -0.8315   -0.5543   -1.0800 H         1 <0>         0.1341
     36 H9          4.0820   -4.4867    1.1627 H         1 <0>         0.1333
     37 H10         5.0456   -6.7479    1.2482 H         1 <0>         0.1370
     38 H11         7.2185   -7.2051    0.1889 H         1 <0>         0.1360
     39 H12         7.4858   -3.1370   -1.0656 H         1 <0>         0.1296
     40 H13         7.3354   -2.4442    2.0236 H         1 <0>         0.1387
     41 H14         9.7422   -2.1480    2.4331 H         1 <0>         0.1620
     42 H15        10.0127    0.7713   -0.5063 H         1 <0>         0.1610
     43 H16         7.6179    0.5731   -1.0296 H         1 <0>         0.1344
@<TRIPOS>BOND
     1    1    2 1
     2    1   29 1
     3    1   30 1
     4    1   31 1
     5    2    3 2
     6    2    4 1
     7    4    9 ar
     8    4    5 ar
     9    5    6 ar
    10    5   32 1
    11    6    7 ar
    12    6   33 1
    13    7    8 ar
    14    7   10 1
    15    8    9 ar
    16    8   34 1
    17    9   35 1
    18   10   15 2
    19   10   11 1
    20   11   12 1
    21   11   13 1
    22   13   14 2
    23   13   23 1
    24   14   15 1
    25   14   16 1
    26   16   21 ar
    27   16   17 ar
    28   17   18 ar
    29   17   36 1
    30   18   19 ar
    31   18   37 1
    32   19   20 ar
    33   19   38 1
    34   20   21 ar
    35   20   22 1
    36   21   39 1
    37   23   28 ar
    38   23   24 ar
    39   24   25 ar
    40   24   40 1
    41   25   26 ar
    42   25   41 1
    43   26   27 ar
    44   27   28 ar
    45   27   42 1
    46   28   43 1
@<TRIPOS>MOLECULE
ZINC04617904
   43    46     0     0     0
SMALL
USER_CHARGES

@<TRIPOS>ATOM
      1 C1         -2.1859    2.3783    0.5642 C.3       1 <0>        -0.4978
      2 S1         -1.4691    2.2352   -1.0960 S.o       1 <0>         1.3316
      3 O1         -2.2446    1.3306   -1.8704 O.2       1 <0>        -0.8500
      4 C2          0.0481    1.3789   -0.8329 C.ar      1 <0>        -0.4537
      5 C3          1.2070    2.0920   -0.5822 C.ar      1 <0>        -0.0372
      6 C4          2.3993    1.4279   -0.3809 C.ar      1 <0>        -0.1279
      7 C5          2.4349    0.0335   -0.4307 C.ar      1 <0>         0.0177
      8 C6          1.2623   -0.6799   -0.6840 C.ar      1 <0>        -0.0900
      9 C7          0.0765   -0.0035   -0.8835 C.ar      1 <0>        -0.0506
     10 C8          3.7092   -0.6848   -0.2164 C.2       1 <0>         0.2582
     11 N1          4.9143   -0.0983    0.0380 N.pl3     1 <0>        -0.5502
     12 H1          5.0932    0.8828    0.1123 H         1 <0>         0.4317
     13 C9          5.8379   -1.1098    0.1732 C.2       1 <0>         0.0380
     14 C10         5.1466   -2.2967   -0.0076 C.2       1 <0>         0.0764
     15 N2          3.8602   -1.9898   -0.2351 N.2       1 <0>        -0.4496
     16 C11         5.7230   -3.6606    0.0469 C.ar      1 <0>         0.0037
     17 C12         5.0359   -4.6856    0.6971 C.ar      1 <0>        -0.0860
     18 C13         5.5772   -5.9538    0.7449 C.ar      1 <0>        -0.1052
     19 C14         6.7991   -6.2107    0.1491 C.ar      1 <0>        -0.1044
     20 C15         7.4860   -5.1980   -0.4983 C.ar      1 <0>        -0.0330
     21 C16         6.9515   -3.9256   -0.5566 C.ar      1 <0>        -0.0911
     22 Cl1         9.0187   -5.5291   -1.2432 Cl        1 <0>        -0.0650
     23 C17         7.2780   -0.9598    0.4546 C.ar      1 <0>         0.0218
     24 C18         7.9021   -1.7279    1.4473 C.ar      1 <0>        -0.1423
     25 C19         9.2512   -1.5581    1.6733 C.ar      1 <0>         0.1094
     26 N3          9.9503   -0.6809    0.9776 N.ar      1 <0>        -0.4772
     27 C20         9.4017    0.0661    0.0377 C.ar      1 <0>         0.1074
     28 C21         8.0599   -0.0411   -0.2590 C.ar      1 <0>        -0.1647
     29 H2         -1.5053    2.9367    1.2069 H         1 <0>         0.1119
     30 H3         -3.1403    2.9015    0.5040 H         1 <0>         0.1086
     31 H4         -2.3429    1.3827    0.9792 H         1 <0>         0.0820
     32 H5          1.1780    3.1709   -0.5440 H         1 <0>         0.1448
     33 H6          3.3031    1.9857   -0.1849 H         1 <0>         0.1251
     34 H7          1.2832   -1.7589   -0.7242 H         1 <0>         0.1411
     35 H8         -0.8315   -0.5543   -1.0800 H         1 <0>         0.1341
     36 H9          4.0820   -4.4867    1.1627 H         1 <0>         0.1333
     37 H10         5.0456   -6.7479    1.2482 H         1 <0>         0.1370
     38 H11         7.2185   -7.2051    0.1889 H         1 <0>         0.1360
     39 H12         7.4858   -3.1370   -1.0656 H         1 <0>         0.1296
     40 H13         7.3354   -2.4442    2.0236 H         1 <0>         0.1387
     41 H14         9.7422   -2.1480    2.4331 H         1 <0>         0.1620
     42 H15        10.0127    0.7713   -0.5063 H         1 <0>         0.1610
     43 H16         7.6179    0.5731   -1.0296 H         1 <0>         0.1344
@<TRIPOS>BOND
     1    1    2 1
     2    1   29 1
     3    1   30 1
     4    1   31 1
     5    2    3 2
     6    2    4 1
     7    4    9 ar
     8    4    5 ar
     9    5    6 ar
    10    5   32 1
    11    6    7 ar
    12    6   33 1
    13    7    8 ar
    14    7   10 1
    15    8    9 ar
    16    8   34 1
    17    9   35 1
    18   10   15 2
    19   10   11 1
    20   11   12 1
    21   11   13 1
    22   13   14 2
    23   13   23 1
    24   14   15 1
    25   14   16 1
    26   16   21 ar
    27   16   17 ar
    28   17   18 ar
    29   17   36 1
    30   18   19 ar
    31   18   37 1
    32   19   20 ar
    33   19   38 1
    34   20   21 ar
    35   20   22 1
    36   21   39 1
    37   23   28 ar
    38   23   24 ar
    39   24   25 ar
    40   24   40 1
    41   25   26 ar
    42   25   41 1
    43   26   27 ar
    44   27   28 ar
    45   27   42 1
    46   28   43 1
@<TRIPOS>MOLECULE
ZINC04617905
   56    60     0     0     0
SMALL
USER_CHARGES

@<TRIPOS>ATOM
      1 C1         10.4439    6.6911    4.6135 C.3       1 <0>         0.0257
      2 O1         10.3453    6.5086    3.1997 O.3       1 <0>        -0.3159
      3 C2          9.0954    6.4800    2.6670 C.ar      1 <0>         0.1391
      4 C3          8.9260    6.3061    1.3010 C.ar      1 <0>        -0.1536
      5 C4          7.6544    6.2770    0.7620 C.ar      1 <0>        -0.0559
      6 C5          6.5510    6.4209    1.5827 C.ar      1 <0>        -0.1531
      7 C6          6.7173    6.5999    2.9436 C.ar      1 <0>        -0.0557
      8 C7          7.9866    6.6241    3.4882 C.ar      1 <0>        -0.2112
      9 C8          5.1649    6.3887    0.9921 C.3       1 <0>         0.1862
     10 N1          4.6710    5.0095    0.9804 N.pl3     1 <0>        -0.6905
     11 C9          3.4111    4.7298    0.4800 C.ar      1 <0>         0.5749
     12 N2          2.6658    5.7230    0.0159 N.ar      1 <0>        -0.5683
     13 C10         1.4546    5.4988   -0.4712 C.ar      1 <0>         0.2042
     14 C11         0.9649    4.2071   -0.4996 C.ar      1 <0>        -0.2909
     15 C12         1.7719    3.1766    0.0022 C.ar      1 <0>         0.2937
     16 N3          2.9822    3.4783    0.4777 N.ar      1 <0>        -0.5483
     17 C13         1.2946    1.7829   -0.0007 C.2       1 <0>         0.0171
     18 C14         2.0750    0.6373   -0.0143 C.2       1 <0>         0.1164
     19 N4          1.2490   -0.4192   -0.0121 N.2       1 <0>        -0.4631
     20 C15         0.0021   -0.0041    0.0020 C.2       1 <0>         0.2826
     21 N5         -0.0164    1.3587    0.0095 N.pl3     1 <0>        -0.5498
     22 H1         -0.8290    1.9414    0.0204 H         1 <0>         0.4310
     23 C16        -1.1913   -0.8769    0.0087 C.ar      1 <0>        -0.0241
     24 C17        -2.4694   -0.3166    0.0297 C.ar      1 <0>        -0.1077
     25 C18        -3.5788   -1.1367    0.0296 C.ar      1 <0>        -0.1162
     26 C19        -3.4263   -2.5118    0.0212 C.ar      1 <0>        -0.1051
     27 C20        -2.1621   -3.0737    0.0061 C.ar      1 <0>        -0.1170
     28 C21        -1.0445   -2.2649   -0.0001 C.ar      1 <0>        -0.0723
     29 C22         3.5559    0.5888   -0.0297 C.ar      1 <0>        -0.0147
     30 C23         4.2801    1.5540   -0.7286 C.ar      1 <0>        -0.0334
     31 C24         5.6588    1.5069   -0.7368 C.ar      1 <0>        -0.1596
     32 C25         6.3238    0.4973   -0.0595 C.ar      1 <0>         0.1057
     33 C26         5.6084   -0.4668    0.6324 C.ar      1 <0>        -0.1599
     34 C27         4.2296   -0.4256    0.6500 C.ar      1 <0>        -0.0575
     35 F1          7.6740    0.4526   -0.0743 F         1 <0>        -0.1402
     36 H2          9.9859    7.6407    4.8901 H         1 <0>         0.0570
     37 H3          9.9275    5.8768    5.1219 H         1 <0>         0.0570
     38 H4         11.4937    6.6949    4.9070 H         1 <0>         0.1024
     39 H5          9.7876    6.1941    0.6596 H         1 <0>         0.1338
     40 H6          7.5220    6.1413   -0.3012 H         1 <0>         0.1316
     41 H7          5.8539    6.7169    3.5819 H         1 <0>         0.1264
     42 H8          8.1158    6.7596    4.5519 H         1 <0>         0.1304
     43 H9          5.1956    6.7723   -0.0278 H         1 <0>         0.0768
     44 H10         4.4993    7.0079    1.5933 H         1 <0>         0.0753
     45 H11         5.2268    4.2924    1.3234 H         1 <0>         0.4159
     46 H12         0.8574    6.3168   -0.8462 H         1 <0>         0.1708
     47 H13        -0.0176    3.9968   -0.8957 H         1 <0>         0.1381
     48 H14        -2.5897    0.7566    0.0411 H         1 <0>         0.1184
     49 H15        -4.5684   -0.7043    0.0406 H         1 <0>         0.1292
     50 H16        -4.2980   -3.1494    0.0261 H         1 <0>         0.1278
     51 H17        -2.0499   -4.1478   -0.0003 H         1 <0>         0.1314
     52 H18        -0.0582   -2.7047   -0.0122 H         1 <0>         0.1393
     53 H19         3.7626    2.3389   -1.2601 H         1 <0>         0.1216
     54 H20         6.2207    2.2562   -1.2747 H         1 <0>         0.1323
     55 H21         6.1310   -1.2520    1.1584 H         1 <0>         0.1364
     56 H22         3.6729   -1.1779    1.1889 H         1 <0>         0.1358
@<TRIPOS>BOND
     1    1    2 1
     2    1   36 1
     3    1   37 1
     4    1   38 1
     5    2    3 1
     6    3    8 ar
     7    3    4 ar
     8    4    5 ar
     9    4   39 1
    10    5    6 ar
    11    5   40 1
    12    6    7 ar
    13    6    9 1
    14    7    8 ar
    15    7   41 1
    16    8   42 1
    17    9   10 1
    18    9   43 1
    19    9   44 1
    20   10   11 1
    21   10   45 1
    22   11   16 ar
    23   11   12 ar
    24   12   13 ar
    25   13   14 ar
    26   13   46 1
    27   14   15 ar
    28   14   47 1
    29   15   16 ar
    30   15   17 1
    31   17   21 1
    32   17   18 2
    33   18   19 1
    34   18   29 1
    35   19   20 2
    36   20   21 1
    37   20   23 1
    38   21   22 1
    39   23   28 ar
    40   23   24 ar
    41   24   25 ar
    42   24   48 1
    43   25   26 ar
    44   25   49 1
    45   26   27 ar
    46   26   50 1
    47   27   28 ar
    48   27   51 1
    49   28   52 1
    50   29   34 ar
    51   29   30 ar
    52   30   31 ar
    53   30   53 1
    54   31   32 ar
    55   31   54 1
    56   32   33 ar
    57   32   35 1
    58   33   34 ar
    59   33   55 1
    60   34   56 1
@<TRIPOS>MOLECULE
ZINC04617905
   56    60     0     0     0
SMALL
USER_CHARGES

@<TRIPOS>ATOM
      1 C1         10.4439    6.6911    4.6135 C.3       1 <0>         0.0257
      2 O1         10.3453    6.5086    3.1997 O.3       1 <0>        -0.3159
      3 C2          9.0954    6.4800    2.6670 C.ar      1 <0>         0.1391
      4 C3          8.9260    6.3061    1.3010 C.ar      1 <0>        -0.1536
      5 C4          7.6544    6.2770    0.7620 C.ar      1 <0>        -0.0559
      6 C5          6.5510    6.4209    1.5827 C.ar      1 <0>        -0.1531
      7 C6          6.7173    6.5999    2.9436 C.ar      1 <0>        -0.0557
      8 C7          7.9866    6.6241    3.4882 C.ar      1 <0>        -0.2112
      9 C8          5.1649    6.3887    0.9921 C.3       1 <0>         0.1862
     10 N1          4.6710    5.0095    0.9804 N.pl3     1 <0>        -0.6905
     11 C9          3.4111    4.7298    0.4800 C.ar      1 <0>         0.5749
     12 N2          2.6658    5.7230    0.0159 N.ar      1 <0>        -0.5683
     13 C10         1.4546    5.4988   -0.4712 C.ar      1 <0>         0.2042
     14 C11         0.9649    4.2071   -0.4996 C.ar      1 <0>        -0.2909
     15 C12         1.7719    3.1766    0.0022 C.ar      1 <0>         0.2937
     16 N3          2.9822    3.4783    0.4777 N.ar      1 <0>        -0.5483
     17 C13         1.2946    1.7829   -0.0007 C.2       1 <0>         0.0171
     18 C14         2.0750    0.6373   -0.0143 C.2       1 <0>         0.1164
     19 N4          1.2490   -0.4192   -0.0121 N.2       1 <0>        -0.4631
     20 C15         0.0021   -0.0041    0.0020 C.2       1 <0>         0.2826
     21 N5         -0.0164    1.3587    0.0095 N.pl3     1 <0>        -0.5498
     22 H1         -0.8290    1.9414    0.0204 H         1 <0>         0.4310
     23 C16        -1.1913   -0.8769    0.0087 C.ar      1 <0>        -0.0241
     24 C17        -2.4694   -0.3166    0.0297 C.ar      1 <0>        -0.1077
     25 C18        -3.5788   -1.1367    0.0296 C.ar      1 <0>        -0.1162
     26 C19        -3.4263   -2.5118    0.0212 C.ar      1 <0>        -0.1051
     27 C20        -2.1621   -3.0737    0.0061 C.ar      1 <0>        -0.1170
     28 C21        -1.0445   -2.2649   -0.0001 C.ar      1 <0>        -0.0723
     29 C22         3.5559    0.5888   -0.0297 C.ar      1 <0>        -0.0147
     30 C23         4.2801    1.5540   -0.7286 C.ar      1 <0>        -0.0334
     31 C24         5.6588    1.5069   -0.7368 C.ar      1 <0>        -0.1596
     32 C25         6.3238    0.4973   -0.0595 C.ar      1 <0>         0.1057
     33 C26         5.6084   -0.4668    0.6324 C.ar      1 <0>        -0.1599
     34 C27         4.2296   -0.4256    0.6500 C.ar      1 <0>        -0.0575
     35 F1          7.6740    0.4526   -0.0743 F         1 <0>        -0.1402
     36 H2          9.9859    7.6407    4.8901 H         1 <0>         0.0570
     37 H3          9.9275    5.8768    5.1219 H         1 <0>         0.0570
     38 H4         11.4937    6.6949    4.9070 H         1 <0>         0.1024
     39 H5          9.7876    6.1941    0.6596 H         1 <0>         0.1338
     40 H6          7.5220    6.1413   -0.3012 H         1 <0>         0.1316
     41 H7          5.8539    6.7169    3.5819 H         1 <0>         0.1264
     42 H8          8.1158    6.7596    4.5519 H         1 <0>         0.1304
     43 H9          5.1956    6.7723   -0.0278 H         1 <0>         0.0768
     44 H10         4.4993    7.0079    1.5933 H         1 <0>         0.0753
     45 H11         5.2268    4.2924    1.3234 H         1 <0>         0.4159
     46 H12         0.8574    6.3168   -0.8462 H         1 <0>         0.1708
     47 H13        -0.0176    3.9968   -0.8957 H         1 <0>         0.1381
     48 H14        -2.5897    0.7566    0.0411 H         1 <0>         0.1184
     49 H15        -4.5684   -0.7043    0.0406 H         1 <0>         0.1292
     50 H16        -4.2980   -3.1494    0.0261 H         1 <0>         0.1278
     51 H17        -2.0499   -4.1478   -0.0003 H         1 <0>         0.1314
     52 H18        -0.0582   -2.7047   -0.0122 H         1 <0>         0.1393
     53 H19         3.7626    2.3389   -1.2601 H         1 <0>         0.1216
     54 H20         6.2207    2.2562   -1.2747 H         1 <0>         0.1323
     55 H21         6.1310   -1.2520    1.1584 H         1 <0>         0.1364
     56 H22         3.6729   -1.1779    1.1889 H         1 <0>         0.1358
@<TRIPOS>BOND
     1    1    2 1
     2    1   36 1
     3    1   37 1
     4    1   38 1
     5    2    3 1
     6    3    8 ar
     7    3    4 ar
     8    4    5 ar
     9    4   39 1
    10    5    6 ar
    11    5   40 1
    12    6    7 ar
    13    6    9 1
    14    7    8 ar
    15    7   41 1
    16    8   42 1
    17    9   10 1
    18    9   43 1
    19    9   44 1
    20   10   11 1
    21   10   45 1
    22   11   16 ar
    23   11   12 ar
    24   12   13 ar
    25   13   14 ar
    26   13   46 1
    27   14   15 ar
    28   14   47 1
    29   15   16 ar
    30   15   17 1
    31   17   21 1
    32   17   18 2
    33   18   19 1
    34   18   29 1
    35   19   20 2
    36   20   21 1
    37   20   23 1
    38   21   22 1
    39   23   28 ar
    40   23   24 ar
    41   24   25 ar
    42   24   48 1
    43   25   26 ar
    44   25   49 1
    45   26   27 ar
    46   26   50 1
    47   27   28 ar
    48   27   51 1
    49   28   52 1
    50   29   34 ar
    51   29   30 ar
    52   30   31 ar
    53   30   53 1
    54   31   32 ar
    55   31   54 1
    56   32   33 ar
    57   32   35 1
    58   33   34 ar
    59   33   55 1
    60   34   56 1
@<TRIPOS>MOLECULE
ZINC04617906
   37    38     0     0     0
SMALL
USER_CHARGES

@<TRIPOS>ATOM
      1 C1          2.8104   -7.7173   -0.9653 C.3       1 <0>        -0.1373
      2 C2          3.3582   -7.4135    0.4306 C.3       1 <0>         0.0114
      3 C3          4.1961   -8.5971    0.9184 C.3       1 <0>        -0.1379
      4 C4          2.1941   -7.1806    1.3958 C.3       1 <0>        -0.1385
      5 C5          4.2191   -6.1779    0.3745 C.2       1 <0>         0.1042
      6 C6          3.7574   -4.8627    0.2714 C.2       1 <0>        -0.2654
      7 C7          4.8421   -4.0410    0.2469 C.2       1 <0>         0.3187
      8 N1          5.9451   -4.8180    0.3413 N.pl3     1 <0>        -0.4943
      9 H1          6.8920   -4.4967    0.3529 H         1 <0>         0.4420
     10 N2          5.5265   -6.1524    0.4199 N.2       1 <0>        -0.2770
     11 N3          4.8201   -2.6498    0.1483 N.am      1 <0>        -0.6557
     12 C8          3.6431   -1.9990    0.0606 C.2       1 <0>         0.7189
     13 O1          2.6005   -2.6246    0.0674 O.2       1 <0>        -0.5343
     14 N4          3.6218   -0.6548   -0.0346 N.am      1 <0>        -0.6745
     15 C9          2.3996    0.0279   -0.0311 C.ar      1 <0>         0.1842
     16 C10         1.2830   -0.5414   -0.6290 C.ar      1 <0>        -0.1036
     17 C11         0.0781    0.1338   -0.6239 C.ar      1 <0>        -0.0803
     18 C12        -0.0184    1.3759   -0.0239 C.ar      1 <0>        -0.1112
     19 C13         1.0915    1.9471    0.5731 C.ar      1 <0>        -0.0132
     20 C14         2.3012    1.2760    0.5709 C.ar      1 <0>        -0.0626
     21 Cl1         3.6942    1.9925    1.3192 Cl        1 <0>        -0.0433
     22 Cl2         0.9659    3.5067    1.3252 Cl        1 <0>        -0.0407
     23 H2          3.6398   -7.8832   -1.6529 H         1 <0>         0.0559
     24 H3          2.1877   -8.6110   -0.9247 H         1 <0>         0.0644
     25 H4          2.2135   -6.8740   -1.3128 H         1 <0>         0.0607
     26 H5          4.5863   -8.3807    1.9128 H         1 <0>         0.0565
     27 H6          3.5734   -9.4908    0.9590 H         1 <0>         0.0594
     28 H7          5.0254   -8.7631    0.2308 H         1 <0>         0.0608
     29 H8          1.5972   -6.3373    1.0483 H         1 <0>         0.0629
     30 H9          1.5714   -8.0743    1.4364 H         1 <0>         0.0635
     31 H10         2.5844   -6.9642    2.3902 H         1 <0>         0.0564
     32 H11         2.7239   -4.5537    0.2182 H         1 <0>         0.1746
     33 H12         5.6518   -2.1507    0.1429 H         1 <0>         0.4107
     34 H13         4.4533   -0.1603   -0.1055 H         1 <0>         0.4130
     35 H14         1.3568   -1.5114   -1.0980 H         1 <0>         0.1589
     36 H15        -0.7902   -0.3093   -1.0890 H         1 <0>         0.1463
     37 H16        -0.9610    1.9032   -0.0252 H         1 <0>         0.1463
@<TRIPOS>BOND
     1    1    2 1
     2    1   23 1
     3    1   24 1
     4    1   25 1
     5    2    3 1
     6    2    4 1
     7    2    5 1
     8    3   26 1
     9    3   27 1
    10    3   28 1
    11    4   29 1
    12    4   30 1
    13    4   31 1
    14    5   10 2
    15    5    6 1
    16    6    7 2
    17    6   32 1
    18    7    8 1
    19    7   11 1
    20    8    9 1
    21    8   10 1
    22   11   12 am
    23   11   33 1
    24   12   13 2
    25   12   14 am
    26   14   15 1
    27   14   34 1
    28   15   20 ar
    29   15   16 ar
    30   16   17 ar
    31   16   35 1
    32   17   18 ar
    33   17   36 1
    34   18   19 ar
    35   18   37 1
    36   19   20 ar
    37   19   22 1
    38   20   21 1
@<TRIPOS>MOLECULE
ZINC04617907
   39    42     0     0     0
SMALL
USER_CHARGES

@<TRIPOS>ATOM
      1 C1          3.8278    9.1095    1.3099 C.ar      1 <0>        -0.1047
      2 C2          2.5713    9.2173    0.7407 C.ar      1 <0>        -0.1170
      3 C3          1.8625    8.0820    0.4062 C.ar      1 <0>        -0.0720
      4 C4          2.4155    6.8227    0.6431 C.ar      1 <0>        -0.0247
      5 C5          3.6810    6.7208    1.2229 C.ar      1 <0>        -0.1076
      6 C6          4.3819    7.8641    1.5470 C.ar      1 <0>        -0.1162
      7 C7          1.6615    5.6017    0.2871 C.2       1 <0>         0.2838
      8 N1          2.0968    4.3233    0.4704 N.pl3     1 <0>        -0.5496
      9 H1          2.9725    4.0451    0.8652 H         1 <0>         0.4312
     10 C8          1.1041    3.4860    0.0098 C.2       1 <0>         0.0157
     11 C9          0.0852    4.3056   -0.4506 C.2       1 <0>         0.1169
     12 N2          0.4653    5.5770   -0.2568 N.2       1 <0>        -0.4631
     13 C10        -1.1952    3.8573   -1.0466 C.ar      1 <0>        -0.0148
     14 C11        -1.2329    2.7145   -1.8449 C.ar      1 <0>        -0.0346
     15 C12        -2.4281    2.2989   -2.3943 C.ar      1 <0>        -0.1605
     16 C13        -3.5881    3.0202   -2.1617 C.ar      1 <0>         0.1052
     17 C14        -3.5547    4.1592   -1.3731 C.ar      1 <0>        -0.1593
     18 C15        -2.3652    4.5802   -0.8157 C.ar      1 <0>        -0.0572
     19 F1         -4.7554    2.6120   -2.7058 F         1 <0>        -0.1402
     20 C16         1.1241    2.0130    0.0021 C.ar      1 <0>         0.2941
     21 C17         2.3412    1.3169   -0.0132 C.ar      1 <0>        -0.2893
     22 C18         2.3087   -0.0639   -0.0203 C.ar      1 <0>         0.2048
     23 N3          1.1386   -0.6857   -0.0125 N.ar      1 <0>        -0.5721
     24 C19         0.0021   -0.0041    0.0020 C.ar      1 <0>         0.5767
     25 N4         -0.0159    1.3191    0.0093 N.ar      1 <0>        -0.5486
     26 N5         -1.1977   -0.6944    0.0102 N.pl3     1 <0>        -0.8166
     27 H2          4.3785   10.0013    1.5699 H         1 <0>         0.1280
     28 H3          2.1443   10.1924    0.5582 H         1 <0>         0.1316
     29 H4          0.8819    8.1676   -0.0384 H         1 <0>         0.1394
     30 H5          4.1126    5.7492    1.4129 H         1 <0>         0.1185
     31 H6          5.3634    7.7867    1.9909 H         1 <0>         0.1293
     32 H7         -0.3286    2.1540   -2.0301 H         1 <0>         0.1214
     33 H8         -2.4590    1.4119   -3.0096 H         1 <0>         0.1330
     34 H9         -4.4614    4.7183   -1.1948 H         1 <0>         0.1371
     35 H10        -2.3400    5.4684   -0.2018 H         1 <0>         0.1364
     36 H11         3.2817    1.8478   -0.0194 H         1 <0>         0.1396
     37 H12         3.2277   -0.6311   -0.0318 H         1 <0>         0.1722
     38 H13        -2.0369   -0.2081    0.0212 H         1 <0>         0.4164
     39 H14        -1.1991   -1.6644    0.0050 H         1 <0>         0.4169
@<TRIPOS>BOND
     1    1    6 ar
     2    1    2 ar
     3    1   27 1
     4    2    3 ar
     5    2   28 1
     6    3    4 ar
     7    3   29 1
     8    4    5 ar
     9    4    7 1
    10    5    6 ar
    11    5   30 1
    12    6   31 1
    13    7   12 2
    14    7    8 1
    15    8    9 1
    16    8   10 1
    17   10   11 2
    18   10   20 1
    19   11   12 1
    20   11   13 1
    21   13   18 ar
    22   13   14 ar
    23   14   15 ar
    24   14   32 1
    25   15   16 ar
    26   15   33 1
    27   16   17 ar
    28   16   19 1
    29   17   18 ar
    30   17   34 1
    31   18   35 1
    32   20   25 ar
    33   20   21 ar
    34   21   22 ar
    35   21   36 1
    36   22   23 ar
    37   22   37 1
    38   23   24 ar
    39   24   25 ar
    40   24   26 1
    41   26   38 1
    42   26   39 1
@<TRIPOS>MOLECULE
ZINC04617907
   39    42     0     0     0
SMALL
USER_CHARGES

@<TRIPOS>ATOM
      1 C1          3.8278    9.1095    1.3099 C.ar      1 <0>        -0.1047
      2 C2          2.5713    9.2173    0.7407 C.ar      1 <0>        -0.1170
      3 C3          1.8625    8.0820    0.4062 C.ar      1 <0>        -0.0720
      4 C4          2.4155    6.8227    0.6431 C.ar      1 <0>        -0.0247
      5 C5          3.6810    6.7208    1.2229 C.ar      1 <0>        -0.1076
      6 C6          4.3819    7.8641    1.5470 C.ar      1 <0>        -0.1162
      7 C7          1.6615    5.6017    0.2871 C.2       1 <0>         0.2838
      8 N1          2.0968    4.3233    0.4704 N.pl3     1 <0>        -0.5496
      9 H1          2.9725    4.0451    0.8652 H         1 <0>         0.4312
     10 C8          1.1041    3.4860    0.0098 C.2       1 <0>         0.0157
     11 C9          0.0852    4.3056   -0.4506 C.2       1 <0>         0.1169
     12 N2          0.4653    5.5770   -0.2568 N.2       1 <0>        -0.4631
     13 C10        -1.1952    3.8573   -1.0466 C.ar      1 <0>        -0.0148
     14 C11        -1.2329    2.7145   -1.8449 C.ar      1 <0>        -0.0346
     15 C12        -2.4281    2.2989   -2.3943 C.ar      1 <0>        -0.1605
     16 C13        -3.5881    3.0202   -2.1617 C.ar      1 <0>         0.1052
     17 C14        -3.5547    4.1592   -1.3731 C.ar      1 <0>        -0.1593
     18 C15        -2.3652    4.5802   -0.8157 C.ar      1 <0>        -0.0572
     19 F1         -4.7554    2.6120   -2.7058 F         1 <0>        -0.1402
     20 C16         1.1241    2.0130    0.0021 C.ar      1 <0>         0.2941
     21 C17         2.3412    1.3169   -0.0132 C.ar      1 <0>        -0.2893
     22 C18         2.3087   -0.0639   -0.0203 C.ar      1 <0>         0.2048
     23 N3          1.1386   -0.6857   -0.0125 N.ar      1 <0>        -0.5721
     24 C19         0.0021   -0.0041    0.0020 C.ar      1 <0>         0.5767
     25 N4         -0.0159    1.3191    0.0093 N.ar      1 <0>        -0.5486
     26 N5         -1.1977   -0.6944    0.0102 N.pl3     1 <0>        -0.8166
     27 H2          4.3785   10.0013    1.5699 H         1 <0>         0.1280
     28 H3          2.1443   10.1924    0.5582 H         1 <0>         0.1316
     29 H4          0.8819    8.1676   -0.0384 H         1 <0>         0.1394
     30 H5          4.1126    5.7492    1.4129 H         1 <0>         0.1185
     31 H6          5.3634    7.7867    1.9909 H         1 <0>         0.1293
     32 H7         -0.3286    2.1540   -2.0301 H         1 <0>         0.1214
     33 H8         -2.4590    1.4119   -3.0096 H         1 <0>         0.1330
     34 H9         -4.4614    4.7183   -1.1948 H         1 <0>         0.1371
     35 H10        -2.3400    5.4684   -0.2018 H         1 <0>         0.1364
     36 H11         3.2817    1.8478   -0.0194 H         1 <0>         0.1396
     37 H12         3.2277   -0.6311   -0.0318 H         1 <0>         0.1722
     38 H13        -2.0369   -0.2081    0.0212 H         1 <0>         0.4164
     39 H14        -1.1991   -1.6644    0.0050 H         1 <0>         0.4169
@<TRIPOS>BOND
     1    1    6 ar
     2    1    2 ar
     3    1   27 1
     4    2    3 ar
     5    2   28 1
     6    3    4 ar
     7    3   29 1
     8    4    5 ar
     9    4    7 1
    10    5    6 ar
    11    5   30 1
    12    6   31 1
    13    7   12 2
    14    7    8 1
    15    8    9 1
    16    8   10 1
    17   10   11 2
    18   10   20 1
    19   11   12 1
    20   11   13 1
    21   13   18 ar
    22   13   14 ar
    23   14   15 ar
    24   14   32 1
    25   15   16 ar
    26   15   33 1
    27   16   17 ar
    28   16   19 1
    29   17   18 ar
    30   17   34 1
    31   18   35 1
    32   20   25 ar
    33   20   21 ar
    34   21   22 ar
    35   21   36 1
    36   22   23 ar
    37   22   37 1
    38   23   24 ar
    39   24   25 ar
    40   24   26 1
    41   26   38 1
    42   26   39 1
@<TRIPOS>MOLECULE
ZINC04617908
   43    46     0     0     0
SMALL
USER_CHARGES

@<TRIPOS>ATOM
      1 C1         -2.4779    1.5828    0.3815 C.ar      1 <0>        -0.1158
      2 C2         -3.5985    2.3480    0.6102 C.ar      1 <0>        -0.0822
      3 C3         -3.4695    3.7135    0.8777 C.ar      1 <0>        -0.1154
      4 C4         -2.2021    4.3006    0.9187 C.ar      1 <0>        -0.0489
      5 C5         -1.0811    3.5341    0.6958 C.ar      1 <0>        -0.0790
      6 C6         -1.2103    2.1688    0.4278 C.ar      1 <0>         0.0131
      7 C7         -0.0069    1.3462    0.1875 C.2       1 <0>         0.2559
      8 N1         -0.0042    0.0087   -0.0830 N.pl3     1 <0>        -0.5498
      9 H1         -0.8061   -0.5851   -0.1499 H         1 <0>         0.4312
     10 C8          1.3076   -0.3697   -0.2464 C.2       1 <0>         0.0357
     11 C9          2.0701    0.7744   -0.0658 C.2       1 <0>         0.0808
     12 N2          1.2312    1.7872    0.1945 N.2       1 <0>        -0.4479
     13 C10         3.5471    0.8619   -0.1465 C.ar      1 <0>        -0.0215
     14 C11         4.3391   -0.1301    0.4309 C.ar      1 <0>        -0.0696
     15 C12         5.7137   -0.0467    0.3490 C.ar      1 <0>        -0.1514
     16 C13         6.3077    1.0259   -0.2965 C.ar      1 <0>         0.1060
     17 C14         5.5250    2.0168   -0.8671 C.ar      1 <0>        -0.1525
     18 C15         4.1496    1.9395   -0.7950 C.ar      1 <0>        -0.0597
     19 F1          7.6544    1.1062   -0.3692 F         1 <0>        -0.1371
     20 C16         1.8050   -1.7240   -0.5535 C.ar      1 <0>         0.0227
     21 C17         2.7510   -1.9316   -1.5667 C.ar      1 <0>        -0.1422
     22 C18         3.1915   -3.2138   -1.8164 C.ar      1 <0>         0.1082
     23 N3          2.7275   -4.2372   -1.1239 N.ar      1 <0>        -0.4786
     24 C19         1.8328   -4.0873   -0.1652 C.ar      1 <0>         0.1067
     25 C20         1.3408   -2.8402    0.1557 C.ar      1 <0>        -0.1652
     26 C21        -4.6728    4.5363    1.1166 C.2       1 <0>         0.5705
     27 O1         -4.5605    5.7243    1.3489 O.2       1 <0>        -0.5096
     28 N4         -5.8952    3.9700    1.0770 N.am      1 <0>        -0.5932
     29 O2         -7.0486    4.7587    1.3059 O.3       1 <0>        -0.3111
     30 H2         -2.5779    0.5283    0.1703 H         1 <0>         0.1276
     31 H3         -4.5780    1.8942    0.5781 H         1 <0>         0.1321
     32 H4         -2.1023    5.3560    1.1251 H         1 <0>         0.1490
     33 H5         -0.1016    3.9879    0.7275 H         1 <0>         0.1504
     34 H6          3.8771   -0.9643    0.9378 H         1 <0>         0.1288
     35 H7          6.3279   -0.8164    0.7926 H         1 <0>         0.1386
     36 H8          5.9926    2.8511   -1.3688 H         1 <0>         0.1400
     37 H9          3.5404    2.7124   -1.2397 H         1 <0>         0.1381
     38 H10         3.1320   -1.0995   -2.1401 H         1 <0>         0.1401
     39 H11         3.9233   -3.3838   -2.5922 H         1 <0>         0.1624
     40 H12         1.4812   -4.9537    0.3752 H         1 <0>         0.1607
     41 H13         0.6091   -2.7251    0.9417 H         1 <0>         0.1343
     42 H14        -5.9848    3.0221    0.8916 H         1 <0>         0.4074
     43 H15        -7.8787    4.2651    1.2571 H         1 <0>         0.3904
@<TRIPOS>BOND
     1    1    6 ar
     2    1    2 ar
     3    1   30 1
     4    2    3 ar
     5    2   31 1
     6    3    4 ar
     7    3   26 1
     8    4    5 ar
     9    4   32 1
    10    5    6 ar
    11    5   33 1
    12    6    7 1
    13    7   12 2
    14    7    8 1
    15    8    9 1
    16    8   10 1
    17   10   11 2
    18   10   20 1
    19   11   12 1
    20   11   13 1
    21   13   18 ar
    22   13   14 ar
    23   14   15 ar
    24   14   34 1
    25   15   16 ar
    26   15   35 1
    27   16   17 ar
    28   16   19 1
    29   17   18 ar
    30   17   36 1
    31   18   37 1
    32   20   25 ar
    33   20   21 ar
    34   21   22 ar
    35   21   38 1
    36   22   23 ar
    37   22   39 1
    38   23   24 ar
    39   24   25 ar
    40   24   40 1
    41   25   41 1
    42   26   27 2
    43   26   28 am
    44   28   29 1
    45   28   42 1
    46   29   43 1
@<TRIPOS>MOLECULE
ZINC04617908
   43    46     0     0     0
SMALL
USER_CHARGES

@<TRIPOS>ATOM
      1 C1         -2.4779    1.5828    0.3815 C.ar      1 <0>        -0.1158
      2 C2         -3.5985    2.3480    0.6102 C.ar      1 <0>        -0.0822
      3 C3         -3.4695    3.7135    0.8777 C.ar      1 <0>        -0.1154
      4 C4         -2.2021    4.3006    0.9187 C.ar      1 <0>        -0.0489
      5 C5         -1.0811    3.5341    0.6958 C.ar      1 <0>        -0.0790
      6 C6         -1.2103    2.1688    0.4278 C.ar      1 <0>         0.0131
      7 C7         -0.0069    1.3462    0.1875 C.2       1 <0>         0.2559
      8 N1         -0.0042    0.0087   -0.0830 N.pl3     1 <0>        -0.5498
      9 H1         -0.8061   -0.5851   -0.1499 H         1 <0>         0.4312
     10 C8          1.3076   -0.3697   -0.2464 C.2       1 <0>         0.0357
     11 C9          2.0701    0.7744   -0.0658 C.2       1 <0>         0.0808
     12 N2          1.2312    1.7872    0.1945 N.2       1 <0>        -0.4479
     13 C10         3.5471    0.8619   -0.1465 C.ar      1 <0>        -0.0215
     14 C11         4.3391   -0.1301    0.4309 C.ar      1 <0>        -0.0696
     15 C12         5.7137   -0.0467    0.3490 C.ar      1 <0>        -0.1514
     16 C13         6.3077    1.0259   -0.2965 C.ar      1 <0>         0.1060
     17 C14         5.5250    2.0168   -0.8671 C.ar      1 <0>        -0.1525
     18 C15         4.1496    1.9395   -0.7950 C.ar      1 <0>        -0.0597
     19 F1          7.6544    1.1062   -0.3692 F         1 <0>        -0.1371
     20 C16         1.8050   -1.7240   -0.5535 C.ar      1 <0>         0.0227
     21 C17         2.7510   -1.9316   -1.5667 C.ar      1 <0>        -0.1422
     22 C18         3.1915   -3.2138   -1.8164 C.ar      1 <0>         0.1082
     23 N3          2.7275   -4.2372   -1.1239 N.ar      1 <0>        -0.4786
     24 C19         1.8328   -4.0873   -0.1652 C.ar      1 <0>         0.1067
     25 C20         1.3408   -2.8402    0.1557 C.ar      1 <0>        -0.1652
     26 C21        -4.6728    4.5363    1.1166 C.2       1 <0>         0.5705
     27 O1         -4.5605    5.7243    1.3489 O.2       1 <0>        -0.5096
     28 N4         -5.8952    3.9700    1.0770 N.am      1 <0>        -0.5932
     29 O2         -7.0486    4.7587    1.3059 O.3       1 <0>        -0.3111
     30 H2         -2.5779    0.5283    0.1703 H         1 <0>         0.1276
     31 H3         -4.5780    1.8942    0.5781 H         1 <0>         0.1321
     32 H4         -2.1023    5.3560    1.1251 H         1 <0>         0.1490
     33 H5         -0.1016    3.9879    0.7275 H         1 <0>         0.1504
     34 H6          3.8771   -0.9643    0.9378 H         1 <0>         0.1288
     35 H7          6.3279   -0.8164    0.7926 H         1 <0>         0.1386
     36 H8          5.9926    2.8511   -1.3688 H         1 <0>         0.1400
     37 H9          3.5404    2.7124   -1.2397 H         1 <0>         0.1381
     38 H10         3.1320   -1.0995   -2.1401 H         1 <0>         0.1401
     39 H11         3.9233   -3.3838   -2.5922 H         1 <0>         0.1624
     40 H12         1.4812   -4.9537    0.3752 H         1 <0>         0.1607
     41 H13         0.6091   -2.7251    0.9417 H         1 <0>         0.1343
     42 H14        -5.9848    3.0221    0.8916 H         1 <0>         0.4074
     43 H15        -7.8787    4.2651    1.2571 H         1 <0>         0.3904
@<TRIPOS>BOND
     1    1    6 ar
     2    1    2 ar
     3    1   30 1
     4    2    3 ar
     5    2   31 1
     6    3    4 ar
     7    3   26 1
     8    4    5 ar
     9    4   32 1
    10    5    6 ar
    11    5   33 1
    12    6    7 1
    13    7   12 2
    14    7    8 1
    15    8    9 1
    16    8   10 1
    17   10   11 2
    18   10   20 1
    19   11   12 1
    20   11   13 1
    21   13   18 ar
    22   13   14 ar
    23   14   15 ar
    24   14   34 1
    25   15   16 ar
    26   15   35 1
    27   16   17 ar
    28   16   19 1
    29   17   18 ar
    30   17   36 1
    31   18   37 1
    32   20   25 ar
    33   20   21 ar
    34   21   22 ar
    35   21   38 1
    36   22   23 ar
    37   22   39 1
    38   23   24 ar
    39   24   25 ar
    40   24   40 1
    41   25   41 1
    42   26   27 2
    43   26   28 am
    44   28   29 1
    45   28   42 1
    46   29   43 1
@<TRIPOS>MOLECULE
ZINC04617909
   42    45     0     0     0
SMALL
USER_CHARGES

@<TRIPOS>ATOM
      1 C1          5.1649    6.3887    0.9921 C.3       1 <0>         0.1054
      2 N1          4.6710    5.0095    0.9804 N.pl3     1 <0>        -0.6989
      3 C2          3.4111    4.7298    0.4800 C.ar      1 <0>         0.5728
      4 N2          2.6658    5.7230    0.0159 N.ar      1 <0>        -0.5677
      5 C3          1.4546    5.4988   -0.4712 C.ar      1 <0>         0.2037
      6 C4          0.9649    4.2071   -0.4996 C.ar      1 <0>        -0.2899
      7 C5          1.7719    3.1766    0.0022 C.ar      1 <0>         0.2931
      8 N3          2.9822    3.4783    0.4777 N.ar      1 <0>        -0.5486
      9 C6          1.2946    1.7829   -0.0007 C.2       1 <0>         0.0169
     10 C7          2.0750    0.6373   -0.0143 C.2       1 <0>         0.1161
     11 N4          1.2490   -0.4192   -0.0121 N.2       1 <0>        -0.4630
     12 C8          0.0021   -0.0041    0.0020 C.2       1 <0>         0.2831
     13 N5         -0.0164    1.3587    0.0095 N.pl3     1 <0>        -0.5497
     14 H1         -0.8290    1.9414    0.0204 H         1 <0>         0.4311
     15 C9         -1.1913   -0.8769    0.0087 C.ar      1 <0>        -0.0244
     16 C10        -2.4694   -0.3166    0.0297 C.ar      1 <0>        -0.1076
     17 C11        -3.5788   -1.1367    0.0296 C.ar      1 <0>        -0.1162
     18 C12        -3.4263   -2.5118    0.0212 C.ar      1 <0>        -0.1049
     19 C13        -2.1621   -3.0737    0.0061 C.ar      1 <0>        -0.1170
     20 C14        -1.0445   -2.2649   -0.0001 C.ar      1 <0>        -0.0721
     21 C15         3.5559    0.5888   -0.0297 C.ar      1 <0>        -0.0145
     22 C16         4.2801    1.5540   -0.7286 C.ar      1 <0>        -0.0339
     23 C17         5.6588    1.5069   -0.7368 C.ar      1 <0>        -0.1605
     24 C18         6.3238    0.4973   -0.0595 C.ar      1 <0>         0.1050
     25 C19         5.6084   -0.4668    0.6324 C.ar      1 <0>        -0.1594
     26 C20         4.2296   -0.4256    0.6500 C.ar      1 <0>        -0.0573
     27 F1          7.6740    0.4526   -0.0743 F         1 <0>        -0.1404
     28 H2          4.4993    7.0079    1.5933 H         1 <0>         0.0601
     29 H3          6.1674    6.4120    1.4193 H         1 <0>         0.0775
     30 H4          5.1956    6.7723   -0.0278 H         1 <0>         0.0608
     31 H5          5.2268    4.2924    1.3234 H         1 <0>         0.4167
     32 H6          0.8574    6.3168   -0.8462 H         1 <0>         0.1713
     33 H7         -0.0176    3.9968   -0.8957 H         1 <0>         0.1388
     34 H8         -2.5897    0.7566    0.0411 H         1 <0>         0.1184
     35 H9         -4.5684   -0.7043    0.0406 H         1 <0>         0.1293
     36 H10        -4.2980   -3.1494    0.0261 H         1 <0>         0.1279
     37 H11        -2.0499   -4.1478   -0.0003 H         1 <0>         0.1315
     38 H12        -0.0582   -2.7047   -0.0122 H         1 <0>         0.1394
     39 H13         3.7626    2.3389   -1.2601 H         1 <0>         0.1214
     40 H14         6.2207    2.2562   -1.2747 H         1 <0>         0.1325
     41 H15         6.1310   -1.2520    1.1584 H         1 <0>         0.1369
     42 H16         3.6729   -1.1779    1.1889 H         1 <0>         0.1363
@<TRIPOS>BOND
     1    1    2 1
     2    1   28 1
     3    1   29 1
     4    1   30 1
     5    2    3 1
     6    2   31 1
     7    3    8 ar
     8    3    4 ar
     9    4    5 ar
    10    5    6 ar
    11    5   32 1
    12    6    7 ar
    13    6   33 1
    14    7    8 ar
    15    7    9 1
    16    9   13 1
    17    9   10 2
    18   10   11 1
    19   10   21 1
    20   11   12 2
    21   12   13 1
    22   12   15 1
    23   13   14 1
    24   15   20 ar
    25   15   16 ar
    26   16   17 ar
    27   16   34 1
    28   17   18 ar
    29   17   35 1
    30   18   19 ar
    31   18   36 1
    32   19   20 ar
    33   19   37 1
    34   20   38 1
    35   21   26 ar
    36   21   22 ar
    37   22   23 ar
    38   22   39 1
    39   23   24 ar
    40   23   40 1
    41   24   25 ar
    42   24   27 1
    43   25   26 ar
    44   25   41 1
    45   26   42 1
@<TRIPOS>MOLECULE
ZINC04617909
   42    45     0     0     0
SMALL
USER_CHARGES

@<TRIPOS>ATOM
      1 C1          5.1649    6.3887    0.9921 C.3       1 <0>         0.1054
      2 N1          4.6710    5.0095    0.9804 N.pl3     1 <0>        -0.6989
      3 C2          3.4111    4.7298    0.4800 C.ar      1 <0>         0.5728
      4 N2          2.6658    5.7230    0.0159 N.ar      1 <0>        -0.5677
      5 C3          1.4546    5.4988   -0.4712 C.ar      1 <0>         0.2037
      6 C4          0.9649    4.2071   -0.4996 C.ar      1 <0>        -0.2899
      7 C5          1.7719    3.1766    0.0022 C.ar      1 <0>         0.2931
      8 N3          2.9822    3.4783    0.4777 N.ar      1 <0>        -0.5486
      9 C6          1.2946    1.7829   -0.0007 C.2       1 <0>         0.0169
     10 C7          2.0750    0.6373   -0.0143 C.2       1 <0>         0.1161
     11 N4          1.2490   -0.4192   -0.0121 N.2       1 <0>        -0.4630
     12 C8          0.0021   -0.0041    0.0020 C.2       1 <0>         0.2831
     13 N5         -0.0164    1.3587    0.0095 N.pl3     1 <0>        -0.5497
     14 H1         -0.8290    1.9414    0.0204 H         1 <0>         0.4311
     15 C9         -1.1913   -0.8769    0.0087 C.ar      1 <0>        -0.0244
     16 C10        -2.4694   -0.3166    0.0297 C.ar      1 <0>        -0.1076
     17 C11        -3.5788   -1.1367    0.0296 C.ar      1 <0>        -0.1162
     18 C12        -3.4263   -2.5118    0.0212 C.ar      1 <0>        -0.1049
     19 C13        -2.1621   -3.0737    0.0061 C.ar      1 <0>        -0.1170
     20 C14        -1.0445   -2.2649   -0.0001 C.ar      1 <0>        -0.0721
     21 C15         3.5559    0.5888   -0.0297 C.ar      1 <0>        -0.0145
     22 C16         4.2801    1.5540   -0.7286 C.ar      1 <0>        -0.0339
     23 C17         5.6588    1.5069   -0.7368 C.ar      1 <0>        -0.1605
     24 C18         6.3238    0.4973   -0.0595 C.ar      1 <0>         0.1050
     25 C19         5.6084   -0.4668    0.6324 C.ar      1 <0>        -0.1594
     26 C20         4.2296   -0.4256    0.6500 C.ar      1 <0>        -0.0573
     27 F1          7.6740    0.4526   -0.0743 F         1 <0>        -0.1404
     28 H2          4.4993    7.0079    1.5933 H         1 <0>         0.0601
     29 H3          6.1674    6.4120    1.4193 H         1 <0>         0.0775
     30 H4          5.1956    6.7723   -0.0278 H         1 <0>         0.0608
     31 H5          5.2268    4.2924    1.3234 H         1 <0>         0.4167
     32 H6          0.8574    6.3168   -0.8462 H         1 <0>         0.1713
     33 H7         -0.0176    3.9968   -0.8957 H         1 <0>         0.1388
     34 H8         -2.5897    0.7566    0.0411 H         1 <0>         0.1184
     35 H9         -4.5684   -0.7043    0.0406 H         1 <0>         0.1293
     36 H10        -4.2980   -3.1494    0.0261 H         1 <0>         0.1279
     37 H11        -2.0499   -4.1478   -0.0003 H         1 <0>         0.1315
     38 H12        -0.0582   -2.7047   -0.0122 H         1 <0>         0.1394
     39 H13         3.7626    2.3389   -1.2601 H         1 <0>         0.1214
     40 H14         6.2207    2.2562   -1.2747 H         1 <0>         0.1325
     41 H15         6.1310   -1.2520    1.1584 H         1 <0>         0.1369
     42 H16         3.6729   -1.1779    1.1889 H         1 <0>         0.1363
@<TRIPOS>BOND
     1    1    2 1
     2    1   28 1
     3    1   29 1
     4    1   30 1
     5    2    3 1
     6    2   31 1
     7    3    8 ar
     8    3    4 ar
     9    4    5 ar
    10    5    6 ar
    11    5   32 1
    12    6    7 ar
    13    6   33 1
    14    7    8 ar
    15    7    9 1
    16    9   13 1
    17    9   10 2
    18   10   11 1
    19   10   21 1
    20   11   12 2
    21   12   13 1
    22   12   15 1
    23   13   14 1
    24   15   20 ar
    25   15   16 ar
    26   16   17 ar
    27   16   34 1
    28   17   18 ar
    29   17   35 1
    30   18   19 ar
    31   18   36 1
    32   19   20 ar
    33   19   37 1
    34   20   38 1
    35   21   26 ar
    36   21   22 ar
    37   22   23 ar
    38   22   39 1
    39   23   24 ar
    40   23   40 1
    41   24   25 ar
    42   24   27 1
    43   25   26 ar
    44   25   41 1
    45   26   42 1
@<TRIPOS>MOLECULE
ZINC04617910
   38    41     0     0     0
SMALL
USER_CHARGES

@<TRIPOS>ATOM
      1 C1          2.6181    5.8001    0.4944 C.ar      1 <0>        -0.1071
      2 C2          3.5419    4.7834    0.3288 C.ar      1 <0>        -0.1166
      3 C3          3.1185    3.4767    0.2006 C.ar      1 <0>        -0.0739
      4 C4          1.7549    3.1814    0.2382 C.ar      1 <0>        -0.0199
      5 C5          0.8279    4.2123    0.3996 C.ar      1 <0>        -0.1101
      6 C6          1.2649    5.5141    0.5325 C.ar      1 <0>        -0.1160
      7 C7          1.2940    1.7832    0.1014 C.2       1 <0>         0.2667
      8 N1         -0.0071    1.3741    0.1226 N.pl3     1 <0>        -0.5537
      9 H1         -0.8114    1.9582    0.2320 H         1 <0>         0.4295
     10 C8         -0.0055    0.0065   -0.0349 C.2       1 <0>         0.0304
     11 C9          1.3225   -0.3720   -0.1482 C.2       1 <0>         0.0770
     12 N2          2.0725    0.7372   -0.0598 N.2       1 <0>        -0.4419
     13 C10         1.8244   -1.7536   -0.3335 C.ar      1 <0>         0.0001
     14 C11         1.2566   -2.5808   -1.3021 C.ar      1 <0>        -0.0882
     15 C12         1.7285   -3.8664   -1.4705 C.ar      1 <0>        -0.1144
     16 C13         2.7635   -4.3359   -0.6812 C.ar      1 <0>        -0.1010
     17 C14         3.3314   -3.5212    0.2813 C.ar      1 <0>        -0.1127
     18 C15         2.8711   -2.2306    0.4564 C.ar      1 <0>        -0.0128
     19 Cl1         3.5895   -1.2064    1.6600 Cl        1 <0>        -0.0514
     20 C16        -1.1836   -0.8799   -0.0751 C.ar      1 <0>         0.0272
     21 C17        -1.2199   -2.0648    0.6730 C.ar      1 <0>        -0.1429
     22 C18        -2.3432   -2.8610    0.6085 C.ar      1 <0>         0.1078
     23 N3         -3.3696   -2.5256   -0.1508 N.ar      1 <0>        -0.4801
     24 C19        -3.3754   -1.4218   -0.8746 C.ar      1 <0>         0.1062
     25 C20        -2.2963   -0.5642   -0.8670 C.ar      1 <0>        -0.1660
     26 H2          2.9548    6.8213    0.5947 H         1 <0>         0.1273
     27 H3          4.5967    5.0134    0.2996 H         1 <0>         0.1306
     28 H4          3.8406    2.6840    0.0718 H         1 <0>         0.1384
     29 H5         -0.2289    3.9909    0.4247 H         1 <0>         0.1171
     30 H6          0.5490    6.3122    0.6623 H         1 <0>         0.1285
     31 H7          0.4487   -2.2160   -1.9190 H         1 <0>         0.1269
     32 H8          1.2893   -4.5075   -2.2204 H         1 <0>         0.1315
     33 H9          3.1291   -5.3430   -0.8171 H         1 <0>         0.1340
     34 H10         4.1389   -3.8933    0.8943 H         1 <0>         0.1363
     35 H11        -0.3820   -2.3478    1.2929 H         1 <0>         0.1378
     36 H12        -2.3825   -3.7740    1.1840 H         1 <0>         0.1616
     37 H13        -4.2375   -1.1875   -1.4814 H         1 <0>         0.1601
     38 H14        -2.3081    0.3371   -1.4618 H         1 <0>         0.1337
@<TRIPOS>BOND
     1    1    6 ar
     2    1    2 ar
     3    1   26 1
     4    2    3 ar
     5    2   27 1
     6    3    4 ar
     7    3   28 1
     8    4    5 ar
     9    4    7 1
    10    5    6 ar
    11    5   29 1
    12    6   30 1
    13    7   12 2
    14    7    8 1
    15    8    9 1
    16    8   10 1
    17   10   11 2
    18   10   20 1
    19   11   12 1
    20   11   13 1
    21   13   18 ar
    22   13   14 ar
    23   14   15 ar
    24   14   31 1
    25   15   16 ar
    26   15   32 1
    27   16   17 ar
    28   16   33 1
    29   17   18 ar
    30   17   34 1
    31   18   19 1
    32   20   25 ar
    33   20   21 ar
    34   21   22 ar
    35   21   35 1
    36   22   23 ar
    37   22   36 1
    38   23   24 ar
    39   24   25 ar
    40   24   37 1
    41   25   38 1
@<TRIPOS>MOLECULE
ZINC04617910
   38    41     0     0     0
SMALL
USER_CHARGES

@<TRIPOS>ATOM
      1 C1          2.6181    5.8001    0.4944 C.ar      1 <0>        -0.1071
      2 C2          3.5419    4.7834    0.3288 C.ar      1 <0>        -0.1166
      3 C3          3.1185    3.4767    0.2006 C.ar      1 <0>        -0.0739
      4 C4          1.7549    3.1814    0.2382 C.ar      1 <0>        -0.0199
      5 C5          0.8279    4.2123    0.3996 C.ar      1 <0>        -0.1101
      6 C6          1.2649    5.5141    0.5325 C.ar      1 <0>        -0.1160
      7 C7          1.2940    1.7832    0.1014 C.2       1 <0>         0.2667
      8 N1         -0.0071    1.3741    0.1226 N.pl3     1 <0>        -0.5537
      9 H1         -0.8114    1.9582    0.2320 H         1 <0>         0.4295
     10 C8         -0.0055    0.0065   -0.0349 C.2       1 <0>         0.0304
     11 C9          1.3225   -0.3720   -0.1482 C.2       1 <0>         0.0770
     12 N2          2.0725    0.7372   -0.0598 N.2       1 <0>        -0.4419
     13 C10         1.8244   -1.7536   -0.3335 C.ar      1 <0>         0.0001
     14 C11         1.2566   -2.5808   -1.3021 C.ar      1 <0>        -0.0882
     15 C12         1.7285   -3.8664   -1.4705 C.ar      1 <0>        -0.1144
     16 C13         2.7635   -4.3359   -0.6812 C.ar      1 <0>        -0.1010
     17 C14         3.3314   -3.5212    0.2813 C.ar      1 <0>        -0.1127
     18 C15         2.8711   -2.2306    0.4564 C.ar      1 <0>        -0.0128
     19 Cl1         3.5895   -1.2064    1.6600 Cl        1 <0>        -0.0514
     20 C16        -1.1836   -0.8799   -0.0751 C.ar      1 <0>         0.0272
     21 C17        -1.2199   -2.0648    0.6730 C.ar      1 <0>        -0.1429
     22 C18        -2.3432   -2.8610    0.6085 C.ar      1 <0>         0.1078
     23 N3         -3.3696   -2.5256   -0.1508 N.ar      1 <0>        -0.4801
     24 C19        -3.3754   -1.4218   -0.8746 C.ar      1 <0>         0.1062
     25 C20        -2.2963   -0.5642   -0.8670 C.ar      1 <0>        -0.1660
     26 H2          2.9548    6.8213    0.5947 H         1 <0>         0.1273
     27 H3          4.5967    5.0134    0.2996 H         1 <0>         0.1306
     28 H4          3.8406    2.6840    0.0718 H         1 <0>         0.1384
     29 H5         -0.2289    3.9909    0.4247 H         1 <0>         0.1171
     30 H6          0.5490    6.3122    0.6623 H         1 <0>         0.1285
     31 H7          0.4487   -2.2160   -1.9190 H         1 <0>         0.1269
     32 H8          1.2893   -4.5075   -2.2204 H         1 <0>         0.1315
     33 H9          3.1291   -5.3430   -0.8171 H         1 <0>         0.1340
     34 H10         4.1389   -3.8933    0.8943 H         1 <0>         0.1363
     35 H11        -0.3820   -2.3478    1.2929 H         1 <0>         0.1378
     36 H12        -2.3825   -3.7740    1.1840 H         1 <0>         0.1616
     37 H13        -4.2375   -1.1875   -1.4814 H         1 <0>         0.1601
     38 H14        -2.3081    0.3371   -1.4618 H         1 <0>         0.1337
@<TRIPOS>BOND
     1    1    6 ar
     2    1    2 ar
     3    1   26 1
     4    2    3 ar
     5    2   27 1
     6    3    4 ar
     7    3   28 1
     8    4    5 ar
     9    4    7 1
    10    5    6 ar
    11    5   29 1
    12    6   30 1
    13    7   12 2
    14    7    8 1
    15    8    9 1
    16    8   10 1
    17   10   11 2
    18   10   20 1
    19   11   12 1
    20   11   13 1
    21   13   18 ar
    22   13   14 ar
    23   14   15 ar
    24   14   31 1
    25   15   16 ar
    26   15   32 1
    27   16   17 ar
    28   16   33 1
    29   17   18 ar
    30   17   34 1
    31   18   19 1
    32   20   25 ar
    33   20   21 ar
    34   21   22 ar
    35   21   35 1
    36   22   23 ar
    37   22   36 1
    38   23   24 ar
    39   24   25 ar
    40   24   37 1
    41   25   38 1
@<TRIPOS>MOLECULE
ZINC04617911
   44    47     0     0     0
SMALL
USER_CHARGES

@<TRIPOS>ATOM
      1 C1         -4.1878    7.2666    2.1199 C.ar      1 <0>        -0.1095
      2 C2         -4.8666    8.3221    2.6850 C.ar      1 <0>        -0.0885
      3 C3         -6.1714    8.6106    2.2799 C.ar      1 <0>        -0.0383
      4 C4         -6.7865    7.8312    1.2981 C.ar      1 <0>        -0.0659
      5 C5         -6.1065    6.7788    0.7286 C.ar      1 <0>        -0.0756
      6 C6         -4.8008    6.4900    1.1333 C.ar      1 <0>        -0.0001
      7 C7         -4.0708    5.3602    0.5227 C.2       1 <0>         0.2630
      8 N1         -2.7992    4.9777    0.8371 N.pl3     1 <0>        -0.5514
      9 H1         -2.2014    5.4046    1.5156 H         1 <0>         0.4310
     10 C8         -2.4937    3.8943    0.0454 C.2       1 <0>         0.0322
     11 C9         -3.6158    3.6481   -0.7301 C.2       1 <0>         0.0814
     12 N2         -4.5443    4.5603   -0.4066 N.2       1 <0>        -0.4516
     13 C10        -3.7634    2.5700   -1.7359 C.ar      1 <0>        -0.0214
     14 C11        -2.6703    2.1806   -2.5093 C.ar      1 <0>        -0.0722
     15 C12        -2.8112    1.1724   -3.4404 C.ar      1 <0>        -0.1516
     16 C13        -4.0392    0.5549   -3.6158 C.ar      1 <0>         0.1053
     17 C14        -5.1296    0.9424   -2.8537 C.ar      1 <0>        -0.1528
     18 C15        -4.9972    1.9456   -1.9161 C.ar      1 <0>        -0.0593
     19 F1         -4.1738   -0.4277   -4.5331 F         1 <0>        -0.1373
     20 C16        -1.2260    3.1407    0.0297 C.ar      1 <0>         0.0235
     21 C17        -1.2209    1.7390    0.0173 C.ar      1 <0>        -0.1438
     22 C18        -0.0126    1.0758    0.0080 C.ar      1 <0>         0.1076
     23 N3          1.1268    1.7422    0.0007 N.ar      1 <0>        -0.4792
     24 C19         1.1678    3.0615    0.0069 C.ar      1 <0>         0.1070
     25 C20         0.0078    3.8060    0.0215 C.ar      1 <0>        -0.1660
     26 C21        -6.9024    9.7420    2.8914 C.2       1 <0>         0.4074
     27 N4         -8.1184   10.0108    2.5143 N.2       1 <0>        -0.4109
     28 O1         -8.8182   11.0937    3.0996 O.3       1 <0>        -0.4203
     29 N5         -6.2925   10.5153    3.8653 N.pl3     1 <0>        -0.8696
     30 H2         -3.1801    7.0410    2.4362 H         1 <0>         0.1259
     31 H3         -4.3913    8.9252    3.4445 H         1 <0>         0.1324
     32 H4         -7.7958    8.0545    0.9853 H         1 <0>         0.1469
     33 H5         -6.5823    6.1760   -0.0308 H         1 <0>         0.1473
     34 H6         -1.7140    2.6646   -2.3767 H         1 <0>         0.1293
     35 H7         -1.9641    0.8671   -4.0367 H         1 <0>         0.1384
     36 H8         -6.0848    0.4584   -2.9942 H         1 <0>         0.1398
     37 H9         -5.8478    2.2471   -1.3228 H         1 <0>         0.1393
     38 H10        -2.1493    1.1872    0.0187 H         1 <0>         0.1407
     39 H11         0.0021   -0.0041    0.0020 H         1 <0>         0.1624
     40 H12         2.1234    3.5646    0.0002 H         1 <0>         0.1606
     41 H13         0.0490    4.8852    0.0269 H         1 <0>         0.1343
     42 H14        -9.7138   11.2152    2.7557 H         1 <0>         0.4032
     43 H15        -5.3860   10.3149    4.1464 H         1 <0>         0.3961
     44 H16        -6.7719   11.2571    4.2662 H         1 <0>         0.4106
@<TRIPOS>BOND
     1    1    6 ar
     2    1    2 ar
     3    1   30 1
     4    2    3 ar
     5    2   31 1
     6    3    4 ar
     7    3   26 1
     8    4    5 ar
     9    4   32 1
    10    5    6 ar
    11    5   33 1
    12    6    7 1
    13    7   12 2
    14    7    8 1
    15    8    9 1
    16    8   10 1
    17   10   11 2
    18   10   20 1
    19   11   12 1
    20   11   13 1
    21   13   18 ar
    22   13   14 ar
    23   14   15 ar
    24   14   34 1
    25   15   16 ar
    26   15   35 1
    27   16   17 ar
    28   16   19 1
    29   17   18 ar
    30   17   36 1
    31   18   37 1
    32   20   25 ar
    33   20   21 ar
    34   21   22 ar
    35   21   38 1
    36   22   23 ar
    37   22   39 1
    38   23   24 ar
    39   24   25 ar
    40   24   40 1
    41   25   41 1
    42   26   27 2
    43   26   29 1
    44   27   28 1
    45   28   42 1
    46   29   43 1
    47   29   44 1
@<TRIPOS>MOLECULE
ZINC04617911
   44    47     0     0     0
SMALL
USER_CHARGES

@<TRIPOS>ATOM
      1 C1         -4.1878    7.2666    2.1199 C.ar      1 <0>        -0.1095
      2 C2         -4.8666    8.3221    2.6850 C.ar      1 <0>        -0.0885
      3 C3         -6.1714    8.6106    2.2799 C.ar      1 <0>        -0.0383
      4 C4         -6.7865    7.8312    1.2981 C.ar      1 <0>        -0.0659
      5 C5         -6.1065    6.7788    0.7286 C.ar      1 <0>        -0.0756
      6 C6         -4.8008    6.4900    1.1333 C.ar      1 <0>        -0.0001
      7 C7         -4.0708    5.3602    0.5227 C.2       1 <0>         0.2630
      8 N1         -2.7992    4.9777    0.8371 N.pl3     1 <0>        -0.5514
      9 H1         -2.2014    5.4046    1.5156 H         1 <0>         0.4310
     10 C8         -2.4937    3.8943    0.0454 C.2       1 <0>         0.0322
     11 C9         -3.6158    3.6481   -0.7301 C.2       1 <0>         0.0814
     12 N2         -4.5443    4.5603   -0.4066 N.2       1 <0>        -0.4516
     13 C10        -3.7634    2.5700   -1.7359 C.ar      1 <0>        -0.0214
     14 C11        -2.6703    2.1806   -2.5093 C.ar      1 <0>        -0.0722
     15 C12        -2.8112    1.1724   -3.4404 C.ar      1 <0>        -0.1516
     16 C13        -4.0392    0.5549   -3.6158 C.ar      1 <0>         0.1053
     17 C14        -5.1296    0.9424   -2.8537 C.ar      1 <0>        -0.1528
     18 C15        -4.9972    1.9456   -1.9161 C.ar      1 <0>        -0.0593
     19 F1         -4.1738   -0.4277   -4.5331 F         1 <0>        -0.1373
     20 C16        -1.2260    3.1407    0.0297 C.ar      1 <0>         0.0235
     21 C17        -1.2209    1.7390    0.0173 C.ar      1 <0>        -0.1438
     22 C18        -0.0126    1.0758    0.0080 C.ar      1 <0>         0.1076
     23 N3          1.1268    1.7422    0.0007 N.ar      1 <0>        -0.4792
     24 C19         1.1678    3.0615    0.0069 C.ar      1 <0>         0.1070
     25 C20         0.0078    3.8060    0.0215 C.ar      1 <0>        -0.1660
     26 C21        -6.9024    9.7420    2.8914 C.2       1 <0>         0.4074
     27 N4         -8.1184   10.0108    2.5143 N.2       1 <0>        -0.4109
     28 O1         -8.8182   11.0937    3.0996 O.3       1 <0>        -0.4203
     29 N5         -6.2925   10.5153    3.8653 N.pl3     1 <0>        -0.8696
     30 H2         -3.1801    7.0410    2.4362 H         1 <0>         0.1259
     31 H3         -4.3913    8.9252    3.4445 H         1 <0>         0.1324
     32 H4         -7.7958    8.0545    0.9853 H         1 <0>         0.1469
     33 H5         -6.5823    6.1760   -0.0308 H         1 <0>         0.1473
     34 H6         -1.7140    2.6646   -2.3767 H         1 <0>         0.1293
     35 H7         -1.9641    0.8671   -4.0367 H         1 <0>         0.1384
     36 H8         -6.0848    0.4584   -2.9942 H         1 <0>         0.1398
     37 H9         -5.8478    2.2471   -1.3228 H         1 <0>         0.1393
     38 H10        -2.1493    1.1872    0.0187 H         1 <0>         0.1407
     39 H11         0.0021   -0.0041    0.0020 H         1 <0>         0.1624
     40 H12         2.1234    3.5646    0.0002 H         1 <0>         0.1606
     41 H13         0.0490    4.8852    0.0269 H         1 <0>         0.1343
     42 H14        -9.7138   11.2152    2.7557 H         1 <0>         0.4032
     43 H15        -5.3860   10.3149    4.1464 H         1 <0>         0.3961
     44 H16        -6.7719   11.2571    4.2662 H         1 <0>         0.4106
@<TRIPOS>BOND
     1    1    6 ar
     2    1    2 ar
     3    1   30 1
     4    2    3 ar
     5    2   31 1
     6    3    4 ar
     7    3   26 1
     8    4    5 ar
     9    4   32 1
    10    5    6 ar
    11    5   33 1
    12    6    7 1
    13    7   12 2
    14    7    8 1
    15    8    9 1
    16    8   10 1
    17   10   11 2
    18   10   20 1
    19   11   12 1
    20   11   13 1
    21   13   18 ar
    22   13   14 ar
    23   14   15 ar
    24   14   34 1
    25   15   16 ar
    26   15   35 1
    27   16   17 ar
    28   16   19 1
    29   17   18 ar
    30   17   36 1
    31   18   37 1
    32   20   25 ar
    33   20   21 ar
    34   21   22 ar
    35   21   38 1
    36   22   23 ar
    37   22   39 1
    38   23   24 ar
    39   24   25 ar
    40   24   40 1
    41   25   41 1
    42   26   27 2
    43   26   29 1
    44   27   28 1
    45   28   42 1
    46   29   43 1
    47   29   44 1
@<TRIPOS>MOLECULE
ZINC04617912
   43    46     0     0     0
SMALL
USER_CHARGES

@<TRIPOS>ATOM
      1 C1         -8.2128    9.3781   -0.5756 C.3       1 <0>        -0.4988
      2 S1         -8.4278    8.2096    0.7952 S.o       1 <0>         1.3333
      3 O1         -8.9179    6.9744    0.2922 O.2       1 <0>        -0.8463
      4 C2         -6.7813    7.8401    1.3025 C.ar      1 <0>        -0.4606
      5 C3         -6.1696    8.6102    2.2759 C.ar      1 <0>        -0.0305
      6 C4         -4.8770    8.3271    2.6796 C.ar      1 <0>        -0.1298
      7 C5         -4.1896    7.2730    2.1137 C.ar      1 <0>        -0.0761
      8 C6         -4.8009    6.4921    1.1319 C.ar      1 <0>        -0.0338
      9 C7         -6.1032    6.7871    0.7247 C.ar      1 <0>        -0.0106
     10 C8         -4.0703    5.3611    0.5213 C.2       1 <0>         0.2664
     11 N1         -2.7995    4.9784    0.8365 N.pl3     1 <0>        -0.5530
     12 H1         -2.2020    5.4053    1.5153 H         1 <0>         0.4301
     13 C9         -2.4937    3.8943    0.0449 C.2       1 <0>         0.0294
     14 C10        -3.6152    3.6480   -0.7303 C.2       1 <0>         0.0815
     15 N2         -4.5438    4.5611   -0.4072 N.2       1 <0>        -0.4554
     16 C11        -3.7628    2.5697   -1.7358 C.ar      1 <0>        -0.0217
     17 C12        -2.6697    2.1799   -2.5090 C.ar      1 <0>        -0.0724
     18 C13        -2.8109    1.1725   -3.4408 C.ar      1 <0>        -0.1516
     19 C14        -4.0389    0.5548   -3.6158 C.ar      1 <0>         0.1054
     20 C15        -5.1292    0.9422   -2.8536 C.ar      1 <0>        -0.1522
     21 C16        -4.9967    1.9453   -1.9159 C.ar      1 <0>        -0.0594
     22 F1         -4.1735   -0.4281   -4.5329 F         1 <0>        -0.1372
     23 C17        -1.2259    3.1407    0.0297 C.ar      1 <0>         0.0248
     24 C18        -1.2208    1.7390    0.0173 C.ar      1 <0>        -0.1441
     25 C19        -0.0126    1.0758    0.0080 C.ar      1 <0>         0.1079
     26 N3          1.1269    1.7422    0.0007 N.ar      1 <0>        -0.4791
     27 C20         1.1678    3.0615    0.0069 C.ar      1 <0>         0.1071
     28 C21         0.0079    3.8060    0.0215 C.ar      1 <0>        -0.1666
     29 H2         -7.6350    8.9046   -1.3694 H         1 <0>         0.0823
     30 H3         -9.1897    9.6692   -0.9615 H         1 <0>         0.1087
     31 H4         -7.6844   10.2626   -0.2196 H         1 <0>         0.1119
     32 H5         -6.7034    9.4362    2.7222 H         1 <0>         0.1438
     33 H6         -4.4051    8.9322    3.4395 H         1 <0>         0.1372
     34 H7         -3.1808    7.0526    2.4302 H         1 <0>         0.1218
     35 H8         -6.5801    6.1896   -0.0382 H         1 <0>         0.1428
     36 H9         -1.7132    2.6636   -2.3762 H         1 <0>         0.1293
     37 H10        -1.9639    0.8671   -4.0373 H         1 <0>         0.1388
     38 H11        -6.0845    0.4583   -2.9940 H         1 <0>         0.1402
     39 H12        -5.8472    2.2468   -1.3225 H         1 <0>         0.1388
     40 H13        -2.1492    1.1872    0.0191 H         1 <0>         0.1405
     41 H14         0.0021   -0.0041    0.0020 H         1 <0>         0.1627
     42 H15         2.1234    3.5647    0.0002 H         1 <0>         0.1608
     43 H16         0.0490    4.8852    0.0269 H         1 <0>         0.1336
@<TRIPOS>BOND
     1    1    2 1
     2    1   29 1
     3    1   30 1
     4    1   31 1
     5    2    3 2
     6    2    4 1
     7    4    9 ar
     8    4    5 ar
     9    5    6 ar
    10    5   32 1
    11    6    7 ar
    12    6   33 1
    13    7    8 ar
    14    7   34 1
    15    8    9 ar
    16    8   10 1
    17    9   35 1
    18   10   15 2
    19   10   11 1
    20   11   12 1
    21   11   13 1
    22   13   14 2
    23   13   23 1
    24   14   15 1
    25   14   16 1
    26   16   21 ar
    27   16   17 ar
    28   17   18 ar
    29   17   36 1
    30   18   19 ar
    31   18   37 1
    32   19   20 ar
    33   19   22 1
    34   20   21 ar
    35   20   38 1
    36   21   39 1
    37   23   28 ar
    38   23   24 ar
    39   24   25 ar
    40   24   40 1
    41   25   26 ar
    42   25   41 1
    43   26   27 ar
    44   27   28 ar
    45   27   42 1
    46   28   43 1
@<TRIPOS>MOLECULE
ZINC04617912
   43    46     0     0     0
SMALL
USER_CHARGES

@<TRIPOS>ATOM
      1 C1         -8.2128    9.3781   -0.5756 C.3       1 <0>        -0.4988
      2 S1         -8.4278    8.2096    0.7952 S.o       1 <0>         1.3333
      3 O1         -8.9179    6.9744    0.2922 O.2       1 <0>        -0.8463
      4 C2         -6.7813    7.8401    1.3025 C.ar      1 <0>        -0.4606
      5 C3         -6.1696    8.6102    2.2759 C.ar      1 <0>        -0.0305
      6 C4         -4.8770    8.3271    2.6796 C.ar      1 <0>        -0.1298
      7 C5         -4.1896    7.2730    2.1137 C.ar      1 <0>        -0.0761
      8 C6         -4.8009    6.4921    1.1319 C.ar      1 <0>        -0.0338
      9 C7         -6.1032    6.7871    0.7247 C.ar      1 <0>        -0.0106
     10 C8         -4.0703    5.3611    0.5213 C.2       1 <0>         0.2664
     11 N1         -2.7995    4.9784    0.8365 N.pl3     1 <0>        -0.5530
     12 H1         -2.2020    5.4053    1.5153 H         1 <0>         0.4301
     13 C9         -2.4937    3.8943    0.0449 C.2       1 <0>         0.0294
     14 C10        -3.6152    3.6480   -0.7303 C.2       1 <0>         0.0815
     15 N2         -4.5438    4.5611   -0.4072 N.2       1 <0>        -0.4554
     16 C11        -3.7628    2.5697   -1.7358 C.ar      1 <0>        -0.0217
     17 C12        -2.6697    2.1799   -2.5090 C.ar      1 <0>        -0.0724
     18 C13        -2.8109    1.1725   -3.4408 C.ar      1 <0>        -0.1516
     19 C14        -4.0389    0.5548   -3.6158 C.ar      1 <0>         0.1054
     20 C15        -5.1292    0.9422   -2.8536 C.ar      1 <0>        -0.1522
     21 C16        -4.9967    1.9453   -1.9159 C.ar      1 <0>        -0.0594
     22 F1         -4.1735   -0.4281   -4.5329 F         1 <0>        -0.1372
     23 C17        -1.2259    3.1407    0.0297 C.ar      1 <0>         0.0248
     24 C18        -1.2208    1.7390    0.0173 C.ar      1 <0>        -0.1441
     25 C19        -0.0126    1.0758    0.0080 C.ar      1 <0>         0.1079
     26 N3          1.1269    1.7422    0.0007 N.ar      1 <0>        -0.4791
     27 C20         1.1678    3.0615    0.0069 C.ar      1 <0>         0.1071
     28 C21         0.0079    3.8060    0.0215 C.ar      1 <0>        -0.1666
     29 H2         -7.6350    8.9046   -1.3694 H         1 <0>         0.0823
     30 H3         -9.1897    9.6692   -0.9615 H         1 <0>         0.1087
     31 H4         -7.6844   10.2626   -0.2196 H         1 <0>         0.1119
     32 H5         -6.7034    9.4362    2.7222 H         1 <0>         0.1438
     33 H6         -4.4051    8.9322    3.4395 H         1 <0>         0.1372
     34 H7         -3.1808    7.0526    2.4302 H         1 <0>         0.1218
     35 H8         -6.5801    6.1896   -0.0382 H         1 <0>         0.1428
     36 H9         -1.7132    2.6636   -2.3762 H         1 <0>         0.1293
     37 H10        -1.9639    0.8671   -4.0373 H         1 <0>         0.1388
     38 H11        -6.0845    0.4583   -2.9940 H         1 <0>         0.1402
     39 H12        -5.8472    2.2468   -1.3225 H         1 <0>         0.1388
     40 H13        -2.1492    1.1872    0.0191 H         1 <0>         0.1405
     41 H14         0.0021   -0.0041    0.0020 H         1 <0>         0.1627
     42 H15         2.1234    3.5647    0.0002 H         1 <0>         0.1608
     43 H16         0.0490    4.8852    0.0269 H         1 <0>         0.1336
@<TRIPOS>BOND
     1    1    2 1
     2    1   29 1
     3    1   30 1
     4    1   31 1
     5    2    3 2
     6    2    4 1
     7    4    9 ar
     8    4    5 ar
     9    5    6 ar
    10    5   32 1
    11    6    7 ar
    12    6   33 1
    13    7    8 ar
    14    7   34 1
    15    8    9 ar
    16    8   10 1
    17    9   35 1
    18   10   15 2
    19   10   11 1
    20   11   12 1
    21   11   13 1
    22   13   14 2
    23   13   23 1
    24   14   15 1
    25   14   16 1
    26   16   21 ar
    27   16   17 ar
    28   17   18 ar
    29   17   36 1
    30   18   19 ar
    31   18   37 1
    32   19   20 ar
    33   19   22 1
    34   20   21 ar
    35   20   38 1
    36   21   39 1
    37   23   28 ar
    38   23   24 ar
    39   24   25 ar
    40   24   40 1
    41   25   26 ar
    42   25   41 1
    43   26   27 ar
    44   27   28 ar
    45   27   42 1
    46   28   43 1
@<TRIPOS>MOLECULE
ZINC04617913
   51    54     0     0     0
SMALL
USER_CHARGES

@<TRIPOS>ATOM
      1 C1         -6.3528   11.0685    2.3385 C.3       1 <0>        -0.1583
      2 C2         -6.9118    9.7610    2.9032 C.3       1 <0>         0.2190
      3 H1         -7.9748    9.6907    2.6726 H         1 <0>         0.1287
      4 C3         -6.1851    8.5951    2.2838 C.ar      1 <0>        -0.0917
      5 C4         -6.8275    7.7999    1.3514 C.ar      1 <0>        -0.1002
      6 C5         -6.1681    6.7307    0.7809 C.ar      1 <0>        -0.0745
      7 C6         -4.8501    6.4523    1.1460 C.ar      1 <0>        -0.0171
      8 C7         -4.2097    7.2552    2.0912 C.ar      1 <0>        -0.1128
      9 C8         -4.8788    8.3242    2.6505 C.ar      1 <0>        -0.0894
     10 C9         -4.1373    5.3082    0.5387 C.2       1 <0>         0.2709
     11 N1         -2.8554    4.9361    0.8196 N.pl3     1 <0>        -0.5531
     12 H2         -2.2365    5.3805    1.4673 H         1 <0>         0.4301
     13 C10        -2.5733    3.8340    0.0442 C.2       1 <0>         0.0269
     14 C11        -3.7197    3.5666   -0.6863 C.2       1 <0>         0.0807
     15 N2         -4.6396    4.4850   -0.3537 N.2       1 <0>        -0.4564
     16 C12        -3.8981    2.4638   -1.6597 C.ar      1 <0>        -0.0200
     17 C13        -2.8307    2.0576   -2.4600 C.ar      1 <0>        -0.0726
     18 C14        -3.0006    1.0276   -3.3618 C.ar      1 <0>        -0.1515
     19 C15        -4.2319    0.4032   -3.4800 C.ar      1 <0>         0.1045
     20 C16        -5.2969    0.8067   -2.6907 C.ar      1 <0>        -0.1528
     21 C17        -5.1356    1.8326   -1.7827 C.ar      1 <0>        -0.0598
     22 F1         -4.3947   -0.6019   -4.3678 F         1 <0>        -0.1376
     23 C18        -1.3044    3.0832    0.0039 C.ar      1 <0>         0.0256
     24 C19        -1.2954    1.6816    0.0248 C.ar      1 <0>        -0.1447
     25 C20        -0.0860    1.0212   -0.0090 C.ar      1 <0>         0.1073
     26 N3          1.0504    1.6898   -0.0710 N.ar      1 <0>        -0.4798
     27 C21         1.0874    3.0090   -0.0981 C.ar      1 <0>         0.1068
     28 C22        -0.0737    3.7509   -0.0622 C.ar      1 <0>        -0.1667
     29 N4         -6.7247    9.7370    4.3560 N.am      1 <0>        -0.4797
     30 C23        -7.7785    9.5202    5.1677 C.2       1 <0>         0.6999
     31 O1         -8.8665    9.2554    4.6938 O.2       1 <0>        -0.5703
     32 N5         -7.6264    9.5968    6.5047 N.am      1 <0>        -0.8654
     33 O2         -5.4366    9.9417    4.9075 O.3       1 <0>        -0.3265
     34 H3         -6.4920   11.0864    1.2576 H         1 <0>         0.0766
     35 H4         -6.8784   11.9118    2.7865 H         1 <0>         0.0662
     36 H5         -5.2898   11.1389    2.5692 H         1 <0>         0.0687
     37 H6         -7.8474    8.0165    1.0698 H         1 <0>         0.1339
     38 H7         -6.6708    6.1104    0.0537 H         1 <0>         0.1406
     39 H8         -3.1915    7.0421    2.3816 H         1 <0>         0.1174
     40 H9         -4.3832    8.9485    3.3792 H         1 <0>         0.1393
     41 H10        -1.8717    2.5464   -2.3715 H         1 <0>         0.1292
     42 H11        -2.1736    0.7100   -3.9796 H         1 <0>         0.1383
     43 H12        -6.2550    0.3175   -2.7869 H         1 <0>         0.1396
     44 H13        -5.9664    2.1467   -1.1682 H         1 <0>         0.1389
     45 H14        -2.2214    1.1279    0.0711 H         1 <0>         0.1403
     46 H15        -0.0682   -0.0585    0.0111 H         1 <0>         0.1621
     47 H16         2.0406    3.5140   -0.1494 H         1 <0>         0.1603
     48 H17        -0.0357    4.8300   -0.0843 H         1 <0>         0.1339
     49 H18        -6.7779    9.8788    6.8809 H         1 <0>         0.3936
     50 H19        -8.3653    9.3700    7.0907 H         1 <0>         0.4228
     51 H20        -5.4245    9.9838    5.8735 H         1 <0>         0.3790
@<TRIPOS>BOND
     1    1    2 1
     2    1   34 1
     3    1   35 1
     4    1   36 1
     5    2    3 1
     6    2    4 1
     7    2   29 1
     8    4    9 ar
     9    4    5 ar
    10    5    6 ar
    11    5   37 1
    12    6    7 ar
    13    6   38 1
    14    7    8 ar
    15    7   10 1
    16    8    9 ar
    17    8   39 1
    18    9   40 1
    19   10   15 2
    20   10   11 1
    21   11   12 1
    22   11   13 1
    23   13   14 2
    24   13   23 1
    25   14   15 1
    26   14   16 1
    27   16   21 ar
    28   16   17 ar
    29   17   18 ar
    30   17   41 1
    31   18   19 ar
    32   18   42 1
    33   19   20 ar
    34   19   22 1
    35   20   21 ar
    36   20   43 1
    37   21   44 1
    38   23   28 ar
    39   23   24 ar
    40   24   25 ar
    41   24   45 1
    42   25   26 ar
    43   25   46 1
    44   26   27 ar
    45   27   28 ar
    46   27   47 1
    47   28   48 1
    48   29   30 am
    49   29   33 1
    50   30   31 2
    51   30   32 am
    52   32   49 1
    53   32   50 1
    54   33   51 1
@<TRIPOS>MOLECULE
ZINC04617913
   51    54     0     0     0
SMALL
USER_CHARGES

@<TRIPOS>ATOM
      1 C1         -6.3528   11.0685    2.3385 C.3       1 <0>        -0.1583
      2 C2         -6.9118    9.7610    2.9032 C.3       1 <0>         0.2190
      3 H1         -7.9748    9.6907    2.6726 H         1 <0>         0.1287
      4 C3         -6.1851    8.5951    2.2838 C.ar      1 <0>        -0.0917
      5 C4         -6.8275    7.7999    1.3514 C.ar      1 <0>        -0.1002
      6 C5         -6.1681    6.7307    0.7809 C.ar      1 <0>        -0.0745
      7 C6         -4.8501    6.4523    1.1460 C.ar      1 <0>        -0.0171
      8 C7         -4.2097    7.2552    2.0912 C.ar      1 <0>        -0.1128
      9 C8         -4.8788    8.3242    2.6505 C.ar      1 <0>        -0.0894
     10 C9         -4.1373    5.3082    0.5387 C.2       1 <0>         0.2709
     11 N1         -2.8554    4.9361    0.8196 N.pl3     1 <0>        -0.5531
     12 H2         -2.2365    5.3805    1.4673 H         1 <0>         0.4301
     13 C10        -2.5733    3.8340    0.0442 C.2       1 <0>         0.0269
     14 C11        -3.7197    3.5666   -0.6863 C.2       1 <0>         0.0807
     15 N2         -4.6396    4.4850   -0.3537 N.2       1 <0>        -0.4564
     16 C12        -3.8981    2.4638   -1.6597 C.ar      1 <0>        -0.0200
     17 C13        -2.8307    2.0576   -2.4600 C.ar      1 <0>        -0.0726
     18 C14        -3.0006    1.0276   -3.3618 C.ar      1 <0>        -0.1515
     19 C15        -4.2319    0.4032   -3.4800 C.ar      1 <0>         0.1045
     20 C16        -5.2969    0.8067   -2.6907 C.ar      1 <0>        -0.1528
     21 C17        -5.1356    1.8326   -1.7827 C.ar      1 <0>        -0.0598
     22 F1         -4.3947   -0.6019   -4.3678 F         1 <0>        -0.1376
     23 C18        -1.3044    3.0832    0.0039 C.ar      1 <0>         0.0256
     24 C19        -1.2954    1.6816    0.0248 C.ar      1 <0>        -0.1447
     25 C20        -0.0860    1.0212   -0.0090 C.ar      1 <0>         0.1073
     26 N3          1.0504    1.6898   -0.0710 N.ar      1 <0>        -0.4798
     27 C21         1.0874    3.0090   -0.0981 C.ar      1 <0>         0.1068
     28 C22        -0.0737    3.7509   -0.0622 C.ar      1 <0>        -0.1667
     29 N4         -6.7247    9.7370    4.3560 N.am      1 <0>        -0.4797
     30 C23        -7.7785    9.5202    5.1677 C.2       1 <0>         0.6999
     31 O1         -8.8665    9.2554    4.6938 O.2       1 <0>        -0.5703
     32 N5         -7.6264    9.5968    6.5047 N.am      1 <0>        -0.8654
     33 O2         -5.4366    9.9417    4.9075 O.3       1 <0>        -0.3265
     34 H3         -6.4920   11.0864    1.2576 H         1 <0>         0.0766
     35 H4         -6.8784   11.9118    2.7865 H         1 <0>         0.0662
     36 H5         -5.2898   11.1389    2.5692 H         1 <0>         0.0687
     37 H6         -7.8474    8.0165    1.0698 H         1 <0>         0.1339
     38 H7         -6.6708    6.1104    0.0537 H         1 <0>         0.1406
     39 H8         -3.1915    7.0421    2.3816 H         1 <0>         0.1174
     40 H9         -4.3832    8.9485    3.3792 H         1 <0>         0.1393
     41 H10        -1.8717    2.5464   -2.3715 H         1 <0>         0.1292
     42 H11        -2.1736    0.7100   -3.9796 H         1 <0>         0.1383
     43 H12        -6.2550    0.3175   -2.7869 H         1 <0>         0.1396
     44 H13        -5.9664    2.1467   -1.1682 H         1 <0>         0.1389
     45 H14        -2.2214    1.1279    0.0711 H         1 <0>         0.1403
     46 H15        -0.0682   -0.0585    0.0111 H         1 <0>         0.1621
     47 H16         2.0406    3.5140   -0.1494 H         1 <0>         0.1603
     48 H17        -0.0357    4.8300   -0.0843 H         1 <0>         0.1339
     49 H18        -6.7779    9.8788    6.8809 H         1 <0>         0.3936
     50 H19        -8.3653    9.3700    7.0907 H         1 <0>         0.4228
     51 H20        -5.4245    9.9838    5.8735 H         1 <0>         0.3790
@<TRIPOS>BOND
     1    1    2 1
     2    1   34 1
     3    1   35 1
     4    1   36 1
     5    2    3 1
     6    2    4 1
     7    2   29 1
     8    4    9 ar
     9    4    5 ar
    10    5    6 ar
    11    5   37 1
    12    6    7 ar
    13    6   38 1
    14    7    8 ar
    15    7   10 1
    16    8    9 ar
    17    8   39 1
    18    9   40 1
    19   10   15 2
    20   10   11 1
    21   11   12 1
    22   11   13 1
    23   13   14 2
    24   13   23 1
    25   14   15 1
    26   14   16 1
    27   16   21 ar
    28   16   17 ar
    29   17   18 ar
    30   17   41 1
    31   18   19 ar
    32   18   42 1
    33   19   20 ar
    34   19   22 1
    35   20   21 ar
    36   20   43 1
    37   21   44 1
    38   23   28 ar
    39   23   24 ar
    40   24   25 ar
    41   24   45 1
    42   25   26 ar
    43   25   46 1
    44   26   27 ar
    45   27   28 ar
    46   27   47 1
    47   28   48 1
    48   29   30 am
    49   29   33 1
    50   30   31 2
    51   30   32 am
    52   32   49 1
    53   32   50 1
    54   33   51 1
@<TRIPOS>MOLECULE
ZINC04617914
   46    49     0     0     0
SMALL
USER_CHARGES

@<TRIPOS>ATOM
      1 C1         10.0045    1.0613   -1.8136 C.3       1 <0>        -0.1077
      2 C2          9.3226    0.0719   -0.9042 C.ar      1 <0>         0.1367
      3 C3          7.9488   -0.0396   -0.9292 C.ar      1 <0>        -0.1655
      4 C4          7.3266   -0.9593   -0.0739 C.ar      1 <0>         0.0269
      5 C5          8.1387   -1.7363    0.7641 C.ar      1 <0>        -0.1511
      6 C6          9.5050   -1.5625    0.7182 C.ar      1 <0>         0.1136
      7 N1         10.0494   -0.6799   -0.0988 N.ar      1 <0>        -0.4794
      8 C7          5.8595   -1.1097   -0.0603 C.2       1 <0>         0.0352
      9 C8          5.1467   -2.2977   -0.0598 C.2       1 <0>         0.0804
     10 N2          3.8406   -1.9905   -0.0404 N.2       1 <0>        -0.4517
     11 C9          3.6955   -0.6847   -0.0373 C.2       1 <0>         0.2590
     12 N3          4.9265   -0.0973   -0.0459 N.pl3     1 <0>        -0.5505
     13 H1          5.1159    0.8846   -0.0424 H         1 <0>         0.4314
     14 C10         2.4034    0.0337   -0.0207 C.ar      1 <0>         0.0177
     15 C11         1.2043   -0.6806   -0.0131 C.ar      1 <0>        -0.0899
     16 C12         0.0021   -0.0041    0.0020 C.ar      1 <0>        -0.0507
     17 C13        -0.0167    1.3794    0.0096 C.ar      1 <0>        -0.4538
     18 C14         1.1684    2.0935    0.0021 C.ar      1 <0>        -0.0372
     19 C15         2.3774    1.4292   -0.0129 C.ar      1 <0>        -0.1279
     20 S1         -1.5566    2.2356    0.0215 S.o       1 <0>         1.3317
     21 O1         -2.4690    1.3101   -0.5530 O.2       1 <0>        -0.8501
     22 C16        -1.9318    2.4393    1.7846 C.3       1 <0>        -0.4978
     23 C17         5.7232   -3.6626   -0.0727 C.ar      1 <0>        -0.0214
     24 C18         6.8960   -3.9199   -0.7820 C.ar      1 <0>        -0.0714
     25 C19         7.4318   -5.1911   -0.7866 C.ar      1 <0>        -0.1512
     26 C20         6.8007   -6.2139   -0.0970 C.ar      1 <0>         0.1057
     27 C21         5.6323   -5.9643    0.6049 C.ar      1 <0>        -0.1528
     28 C22         5.0917   -4.6952    0.6199 C.ar      1 <0>        -0.0597
     29 F1          7.3259   -7.4586   -0.1094 F         1 <0>        -0.1371
     30 H2         10.2361    0.5812   -2.7644 H         1 <0>         0.0818
     31 H3          9.3437    1.9107   -1.9869 H         1 <0>         0.0752
     32 H4         10.9268    1.4077   -1.3473 H         1 <0>         0.0811
     33 H5          7.3608    0.5753   -1.5944 H         1 <0>         0.1337
     34 H6          7.7002   -2.4598    1.4355 H         1 <0>         0.1401
     35 H7         10.1392   -2.1562    1.3598 H         1 <0>         0.1631
     36 H8          1.2176   -1.7605   -0.0194 H         1 <0>         0.1412
     37 H9         -0.9265   -0.5556    0.0075 H         1 <0>         0.1341
     38 H10         1.1468    3.1732    0.0081 H         1 <0>         0.1447
     39 H11         3.3017    1.9878   -0.0184 H         1 <0>         0.1250
     40 H12        -1.1382    3.0150    2.2608 H         1 <0>         0.1119
     41 H13        -2.8796    2.9660    1.8958 H         1 <0>         0.1086
     42 H14        -2.0032    1.4593    2.2565 H         1 <0>         0.0820
     43 H15         7.3862   -3.1243   -1.3235 H         1 <0>         0.1295
     44 H16         8.3420   -5.3905   -1.3326 H         1 <0>         0.1388
     45 H17         5.1440   -6.7647    1.1410 H         1 <0>         0.1398
     46 H18         4.1807   -4.5018    1.1667 H         1 <0>         0.1383
@<TRIPOS>BOND
     1    1    2 1
     2    1   30 1
     3    1   31 1
     4    1   32 1
     5    2    7 ar
     6    2    3 ar
     7    3    4 ar
     8    3   33 1
     9    4    5 ar
    10    4    8 1
    11    5    6 ar
    12    5   34 1
    13    6    7 ar
    14    6   35 1
    15    8   12 1
    16    8    9 2
    17    9   10 1
    18    9   23 1
    19   10   11 2
    20   11   12 1
    21   11   14 1
    22   12   13 1
    23   14   19 ar
    24   14   15 ar
    25   15   16 ar
    26   15   36 1
    27   16   17 ar
    28   16   37 1
    29   17   18 ar
    30   17   20 1
    31   18   19 ar
    32   18   38 1
    33   19   39 1
    34   20   21 2
    35   20   22 1
    36   22   40 1
    37   22   41 1
    38   22   42 1
    39   23   28 ar
    40   23   24 ar
    41   24   25 ar
    42   24   43 1
    43   25   26 ar
    44   25   44 1
    45   26   27 ar
    46   26   29 1
    47   27   28 ar
    48   27   45 1
    49   28   46 1
@<TRIPOS>MOLECULE
ZINC04617914
   46    49     0     0     0
SMALL
USER_CHARGES

@<TRIPOS>ATOM
      1 C1         10.0045    1.0613   -1.8136 C.3       1 <0>        -0.1077
      2 C2          9.3226    0.0719   -0.9042 C.ar      1 <0>         0.1367
      3 C3          7.9488   -0.0396   -0.9292 C.ar      1 <0>        -0.1655
      4 C4          7.3266   -0.9593   -0.0739 C.ar      1 <0>         0.0269
      5 C5          8.1387   -1.7363    0.7641 C.ar      1 <0>        -0.1511
      6 C6          9.5050   -1.5625    0.7182 C.ar      1 <0>         0.1136
      7 N1         10.0494   -0.6799   -0.0988 N.ar      1 <0>        -0.4794
      8 C7          5.8595   -1.1097   -0.0603 C.2       1 <0>         0.0352
      9 C8          5.1467   -2.2977   -0.0598 C.2       1 <0>         0.0804
     10 N2          3.8406   -1.9905   -0.0404 N.2       1 <0>        -0.4517
     11 C9          3.6955   -0.6847   -0.0373 C.2       1 <0>         0.2590
     12 N3          4.9265   -0.0973   -0.0459 N.pl3     1 <0>        -0.5505
     13 H1          5.1159    0.8846   -0.0424 H         1 <0>         0.4314
     14 C10         2.4034    0.0337   -0.0207 C.ar      1 <0>         0.0177
     15 C11         1.2043   -0.6806   -0.0131 C.ar      1 <0>        -0.0899
     16 C12         0.0021   -0.0041    0.0020 C.ar      1 <0>        -0.0507
     17 C13        -0.0167    1.3794    0.0096 C.ar      1 <0>        -0.4538
     18 C14         1.1684    2.0935    0.0021 C.ar      1 <0>        -0.0372
     19 C15         2.3774    1.4292   -0.0129 C.ar      1 <0>        -0.1279
     20 S1         -1.5566    2.2356    0.0215 S.o       1 <0>         1.3317
     21 O1         -2.4690    1.3101   -0.5530 O.2       1 <0>        -0.8501
     22 C16        -1.9318    2.4393    1.7846 C.3       1 <0>        -0.4978
     23 C17         5.7232   -3.6626   -0.0727 C.ar      1 <0>        -0.0214
     24 C18         6.8960   -3.9199   -0.7820 C.ar      1 <0>        -0.0714
     25 C19         7.4318   -5.1911   -0.7866 C.ar      1 <0>        -0.1512
     26 C20         6.8007   -6.2139   -0.0970 C.ar      1 <0>         0.1057
     27 C21         5.6323   -5.9643    0.6049 C.ar      1 <0>        -0.1528
     28 C22         5.0917   -4.6952    0.6199 C.ar      1 <0>        -0.0597
     29 F1          7.3259   -7.4586   -0.1094 F         1 <0>        -0.1371
     30 H2         10.2361    0.5812   -2.7644 H         1 <0>         0.0818
     31 H3          9.3437    1.9107   -1.9869 H         1 <0>         0.0752
     32 H4         10.9268    1.4077   -1.3473 H         1 <0>         0.0811
     33 H5          7.3608    0.5753   -1.5944 H         1 <0>         0.1337
     34 H6          7.7002   -2.4598    1.4355 H         1 <0>         0.1401
     35 H7         10.1392   -2.1562    1.3598 H         1 <0>         0.1631
     36 H8          1.2176   -1.7605   -0.0194 H         1 <0>         0.1412
     37 H9         -0.9265   -0.5556    0.0075 H         1 <0>         0.1341
     38 H10         1.1468    3.1732    0.0081 H         1 <0>         0.1447
     39 H11         3.3017    1.9878   -0.0184 H         1 <0>         0.1250
     40 H12        -1.1382    3.0150    2.2608 H         1 <0>         0.1119
     41 H13        -2.8796    2.9660    1.8958 H         1 <0>         0.1086
     42 H14        -2.0032    1.4593    2.2565 H         1 <0>         0.0820
     43 H15         7.3862   -3.1243   -1.3235 H         1 <0>         0.1295
     44 H16         8.3420   -5.3905   -1.3326 H         1 <0>         0.1388
     45 H17         5.1440   -6.7647    1.1410 H         1 <0>         0.1398
     46 H18         4.1807   -4.5018    1.1667 H         1 <0>         0.1383
@<TRIPOS>BOND
     1    1    2 1
     2    1   30 1
     3    1   31 1
     4    1   32 1
     5    2    7 ar
     6    2    3 ar
     7    3    4 ar
     8    3   33 1
     9    4    5 ar
    10    4    8 1
    11    5    6 ar
    12    5   34 1
    13    6    7 ar
    14    6   35 1
    15    8   12 1
    16    8    9 2
    17    9   10 1
    18    9   23 1
    19   10   11 2
    20   11   12 1
    21   11   14 1
    22   12   13 1
    23   14   19 ar
    24   14   15 ar
    25   15   16 ar
    26   15   36 1
    27   16   17 ar
    28   16   37 1
    29   17   18 ar
    30   17   20 1
    31   18   19 ar
    32   18   38 1
    33   19   39 1
    34   20   21 2
    35   20   22 1
    36   22   40 1
    37   22   41 1
    38   22   42 1
    39   23   28 ar
    40   23   24 ar
    41   24   25 ar
    42   24   43 1
    43   25   26 ar
    44   25   44 1
    45   26   27 ar
    46   26   29 1
    47   27   28 ar
    48   27   45 1
    49   28   46 1
@<TRIPOS>MOLECULE
ZINC04617915
   46    49     0     0     0
SMALL
USER_CHARGES

@<TRIPOS>ATOM
      1 C1          7.4278   -2.1949    2.1901 C.3       1 <0>        -0.1140
      2 C2          8.1304   -1.5122    1.0450 C.ar      1 <0>        -0.1024
      3 C3          9.5024   -1.3784    1.0456 C.ar      1 <0>         0.1043
      4 N1         10.1260   -0.7819    0.0469 N.ar      1 <0>        -0.4721
      5 C4          9.4764   -0.2891   -0.9914 C.ar      1 <0>         0.0964
      6 C5          8.1043   -0.3839   -1.0782 C.ar      1 <0>        -0.1536
      7 C6          7.3991   -1.0039   -0.0372 C.ar      1 <0>         0.0140
      8 C7          5.9297   -1.1232   -0.0824 C.2       1 <0>         0.0401
      9 C8          5.1948   -2.2922   -0.1948 C.2       1 <0>         0.0772
     10 N2          3.8951   -1.9589   -0.1993 N.2       1 <0>        -0.4506
     11 C9          3.7746   -0.6546   -0.0966 C.2       1 <0>         0.2545
     12 N3          5.0164   -0.0945   -0.0266 N.pl3     1 <0>        -0.5499
     13 H1          5.2244    0.8806    0.0508 H         1 <0>         0.4311
     14 C10         2.4967    0.0883   -0.0678 C.ar      1 <0>         0.0189
     15 C11         1.2846   -0.5986   -0.1527 C.ar      1 <0>        -0.0906
     16 C12         0.0957    0.1007   -0.1258 C.ar      1 <0>        -0.0506
     17 C13         0.1031    1.4798   -0.0153 C.ar      1 <0>        -0.4542
     18 C14         1.3011    2.1668    0.0692 C.ar      1 <0>        -0.0372
     19 C15         2.4971    1.4795    0.0439 C.ar      1 <0>        -0.1285
     20 S1         -1.4197    2.3658    0.0105 S.o       1 <0>         1.3315
     21 O1         -2.3295    1.5054   -0.6612 O.2       1 <0>        -0.8502
     22 C16        -1.8508    2.4463    1.7706 C.3       1 <0>        -0.4979
     23 C17         5.7453   -3.6644   -0.2930 C.ar      1 <0>        -0.0159
     24 C18         6.8593   -3.9155   -1.0935 C.ar      1 <0>        -0.0716
     25 C19         7.3714   -5.1937   -1.1776 C.ar      1 <0>        -0.1510
     26 C20         6.7744   -6.2291   -0.4765 C.ar      1 <0>         0.1046
     27 C21         5.6640   -5.9856    0.3157 C.ar      1 <0>        -0.1525
     28 C22         5.1477   -4.7099    0.4103 C.ar      1 <0>        -0.0616
     29 F1          7.2764   -7.4802   -0.5660 F         1 <0>        -0.1374
     30 H2          7.4192   -3.2717    2.0211 H         1 <0>         0.0800
     31 H3          7.9528   -1.9773    3.1202 H         1 <0>         0.0744
     32 H4          6.4030   -1.8295    2.2574 H         1 <0>         0.0672
     33 H5         10.0750   -1.7668    1.8748 H         1 <0>         0.1609
     34 H6         10.0284    0.1909   -1.7859 H         1 <0>         0.1609
     35 H7          7.5799    0.0171   -1.9330 H         1 <0>         0.1365
     36 H8          1.2775   -1.6751   -0.2397 H         1 <0>         0.1410
     37 H9         -0.8429   -0.4296   -0.1914 H         1 <0>         0.1338
     38 H10         1.3000    3.2433    0.1553 H         1 <0>         0.1444
     39 H11         3.4316    2.0169    0.1104 H         1 <0>         0.1248
     40 H12        -1.0630    2.9679    2.3142 H         1 <0>         0.1118
     41 H13        -2.7917    2.9837    1.8901 H         1 <0>         0.1085
     42 H14        -1.9569    1.4358    2.1653 H         1 <0>         0.0820
     43 H15         7.3226   -3.1099   -1.6438 H         1 <0>         0.1285
     44 H16         8.2368   -5.3883   -1.7937 H         1 <0>         0.1381
     45 H17         5.2016   -6.7960    0.8597 H         1 <0>         0.1395
     46 H18         4.2820   -4.5211    1.0277 H         1 <0>         0.1369
@<TRIPOS>BOND
     1    1    2 1
     2    1   30 1
     3    1   31 1
     4    1   32 1
     5    2    7 ar
     6    2    3 ar
     7    3    4 ar
     8    3   33 1
     9    4    5 ar
    10    5    6 ar
    11    5   34 1
    12    6    7 ar
    13    6   35 1
    14    7    8 1
    15    8   12 1
    16    8    9 2
    17    9   10 1
    18    9   23 1
    19   10   11 2
    20   11   12 1
    21   11   14 1
    22   12   13 1
    23   14   19 ar
    24   14   15 ar
    25   15   16 ar
    26   15   36 1
    27   16   17 ar
    28   16   37 1
    29   17   18 ar
    30   17   20 1
    31   18   19 ar
    32   18   38 1
    33   19   39 1
    34   20   21 2
    35   20   22 1
    36   22   40 1
    37   22   41 1
    38   22   42 1
    39   23   28 ar
    40   23   24 ar
    41   24   25 ar
    42   24   43 1
    43   25   26 ar
    44   25   44 1
    45   26   27 ar
    46   26   29 1
    47   27   28 ar
    48   27   45 1
    49   28   46 1
@<TRIPOS>MOLECULE
ZINC04617915
   46    49     0     0     0
SMALL
USER_CHARGES

@<TRIPOS>ATOM
      1 C1          7.4278   -2.1949    2.1901 C.3       1 <0>        -0.1140
      2 C2          8.1304   -1.5122    1.0450 C.ar      1 <0>        -0.1024
      3 C3          9.5024   -1.3784    1.0456 C.ar      1 <0>         0.1043
      4 N1         10.1260   -0.7819    0.0469 N.ar      1 <0>        -0.4721
      5 C4          9.4764   -0.2891   -0.9914 C.ar      1 <0>         0.0964
      6 C5          8.1043   -0.3839   -1.0782 C.ar      1 <0>        -0.1536
      7 C6          7.3991   -1.0039   -0.0372 C.ar      1 <0>         0.0140
      8 C7          5.9297   -1.1232   -0.0824 C.2       1 <0>         0.0401
      9 C8          5.1948   -2.2922   -0.1948 C.2       1 <0>         0.0772
     10 N2          3.8951   -1.9589   -0.1993 N.2       1 <0>        -0.4506
     11 C9          3.7746   -0.6546   -0.0966 C.2       1 <0>         0.2545
     12 N3          5.0164   -0.0945   -0.0266 N.pl3     1 <0>        -0.5499
     13 H1          5.2244    0.8806    0.0508 H         1 <0>         0.4311
     14 C10         2.4967    0.0883   -0.0678 C.ar      1 <0>         0.0189
     15 C11         1.2846   -0.5986   -0.1527 C.ar      1 <0>        -0.0906
     16 C12         0.0957    0.1007   -0.1258 C.ar      1 <0>        -0.0506
     17 C13         0.1031    1.4798   -0.0153 C.ar      1 <0>        -0.4542
     18 C14         1.3011    2.1668    0.0692 C.ar      1 <0>        -0.0372
     19 C15         2.4971    1.4795    0.0439 C.ar      1 <0>        -0.1285
     20 S1         -1.4197    2.3658    0.0105 S.o       1 <0>         1.3315
     21 O1         -2.3295    1.5054   -0.6612 O.2       1 <0>        -0.8502
     22 C16        -1.8508    2.4463    1.7706 C.3       1 <0>        -0.4979
     23 C17         5.7453   -3.6644   -0.2930 C.ar      1 <0>        -0.0159
     24 C18         6.8593   -3.9155   -1.0935 C.ar      1 <0>        -0.0716
     25 C19         7.3714   -5.1937   -1.1776 C.ar      1 <0>        -0.1510
     26 C20         6.7744   -6.2291   -0.4765 C.ar      1 <0>         0.1046
     27 C21         5.6640   -5.9856    0.3157 C.ar      1 <0>        -0.1525
     28 C22         5.1477   -4.7099    0.4103 C.ar      1 <0>        -0.0616
     29 F1          7.2764   -7.4802   -0.5660 F         1 <0>        -0.1374
     30 H2          7.4192   -3.2717    2.0211 H         1 <0>         0.0800
     31 H3          7.9528   -1.9773    3.1202 H         1 <0>         0.0744
     32 H4          6.4030   -1.8295    2.2574 H         1 <0>         0.0672
     33 H5         10.0750   -1.7668    1.8748 H         1 <0>         0.1609
     34 H6         10.0284    0.1909   -1.7859 H         1 <0>         0.1609
     35 H7          7.5799    0.0171   -1.9330 H         1 <0>         0.1365
     36 H8          1.2775   -1.6751   -0.2397 H         1 <0>         0.1410
     37 H9         -0.8429   -0.4296   -0.1914 H         1 <0>         0.1338
     38 H10         1.3000    3.2433    0.1553 H         1 <0>         0.1444
     39 H11         3.4316    2.0169    0.1104 H         1 <0>         0.1248
     40 H12        -1.0630    2.9679    2.3142 H         1 <0>         0.1118
     41 H13        -2.7917    2.9837    1.8901 H         1 <0>         0.1085
     42 H14        -1.9569    1.4358    2.1653 H         1 <0>         0.0820
     43 H15         7.3226   -3.1099   -1.6438 H         1 <0>         0.1285
     44 H16         8.2368   -5.3883   -1.7937 H         1 <0>         0.1381
     45 H17         5.2016   -6.7960    0.8597 H         1 <0>         0.1395
     46 H18         4.2820   -4.5211    1.0277 H         1 <0>         0.1369
@<TRIPOS>BOND
     1    1    2 1
     2    1   30 1
     3    1   31 1
     4    1   32 1
     5    2    7 ar
     6    2    3 ar
     7    3    4 ar
     8    3   33 1
     9    4    5 ar
    10    5    6 ar
    11    5   34 1
    12    6    7 ar
    13    6   35 1
    14    7    8 1
    15    8   12 1
    16    8    9 2
    17    9   10 1
    18    9   23 1
    19   10   11 2
    20   11   12 1
    21   11   14 1
    22   12   13 1
    23   14   19 ar
    24   14   15 ar
    25   15   16 ar
    26   15   36 1
    27   16   17 ar
    28   16   37 1
    29   17   18 ar
    30   17   20 1
    31   18   19 ar
    32   18   38 1
    33   19   39 1
    34   20   21 2
    35   20   22 1
    36   22   40 1
    37   22   41 1
    38   22   42 1
    39   23   28 ar
    40   23   24 ar
    41   24   25 ar
    42   24   43 1
    43   25   26 ar
    44   25   44 1
    45   26   27 ar
    46   26   29 1
    47   27   28 ar
    48   27   45 1
    49   28   46 1
@<TRIPOS>MOLECULE
ZINC04617916
   47    50     0     0     0
SMALL
USER_CHARGES

@<TRIPOS>ATOM
      1 C1          2.3081   -0.3094   -0.0216 C.3       1 <0>         0.0266
      2 O1          2.3663    1.1184   -0.0145 O.3       1 <0>        -0.3161
      3 C2          1.1816    1.7842    0.0004 C.ar      1 <0>         0.1279
      4 C3         -0.0126    1.0758    0.0080 C.ar      1 <0>        -0.2019
      5 C4         -1.2202    1.7484    0.0173 C.ar      1 <0>        -0.0773
      6 C5         -1.2460    3.1285    0.0298 C.ar      1 <0>        -0.1376
      7 C6         -0.0513    3.8478    0.0223 C.ar      1 <0>         0.0285
      8 C7          1.1659    3.1688    0.0075 C.ar      1 <0>        -0.1215
      9 C8         -0.0758    5.3294    0.0305 C.2       1 <0>         0.0805
     10 C9         -1.0084    6.1346   -0.6030 C.2       1 <0>         0.0357
     11 N1         -0.6496    7.4345   -0.3276 N.pl3     1 <0>        -0.5518
     12 H1         -1.1244    8.2592   -0.6349 H         1 <0>         0.4309
     13 C10         0.4750    7.3871    0.4430 C.2       1 <0>         0.2572
     14 N2          0.8047    6.1320    0.6480 N.2       1 <0>        -0.4479
     15 C11         1.2065    8.5613    0.9646 C.ar      1 <0>         0.0186
     16 C12         0.7599    9.8513    0.6736 C.ar      1 <0>        -0.1256
     17 C13         1.4435   10.9426    1.1686 C.ar      1 <0>        -0.0498
     18 C14         2.5763   10.7606    1.9419 C.ar      1 <0>        -0.4539
     19 C15         3.0278    9.4847    2.2289 C.ar      1 <0>        -0.0382
     20 C16         2.3499    8.3848    1.7453 C.ar      1 <0>        -0.0925
     21 S1          3.4480   12.1600    2.5636 S.o       1 <0>         1.3327
     22 O2          2.4661   13.1864    2.6046 O.2       1 <0>        -0.8526
     23 C17         4.6597   12.5340    1.2665 C.3       1 <0>        -0.4977
     24 C18        -2.1596    5.6874   -1.4095 C.ar      1 <0>         0.0243
     25 C19        -2.0179    4.6748   -2.3683 C.ar      1 <0>        -0.1399
     26 C20        -3.1218    4.2847   -3.0957 C.ar      1 <0>         0.1068
     27 N3         -4.2958    4.8577   -2.9064 N.ar      1 <0>        -0.4791
     28 C21        -4.4724    5.8179   -2.0181 C.ar      1 <0>         0.1063
     29 C22        -3.4249    6.2670   -1.2429 C.ar      1 <0>        -0.1661
     30 H2          1.7714   -0.6467   -0.9084 H         1 <0>         0.0561
     31 H3          3.3200   -0.7143   -0.0335 H         1 <0>         0.1014
     32 H4          1.7883   -0.6563    0.8715 H         1 <0>         0.0564
     33 H5          0.0021   -0.0041    0.0020 H         1 <0>         0.1298
     34 H6         -2.1461    1.1925    0.0191 H         1 <0>         0.1282
     35 H7         -2.1911    3.6510    0.0413 H         1 <0>         0.1211
     36 H8          2.0940    3.7210    0.0012 H         1 <0>         0.1361
     37 H9         -0.1216    9.9947    0.0664 H         1 <0>         0.1202
     38 H10         1.0962   11.9412    0.9482 H         1 <0>         0.1319
     39 H11         3.9127    9.3494    2.8331 H         1 <0>         0.1468
     40 H12         2.7034    7.3893    1.9700 H         1 <0>         0.1463
     41 H13         4.1384   12.7553    0.3352 H         1 <0>         0.0809
     42 H14         5.2552   13.3972    1.5635 H         1 <0>         0.1086
     43 H15         5.3136   11.6741    1.1213 H         1 <0>         0.1130
     44 H16        -1.0594    4.2047   -2.5318 H         1 <0>         0.1405
     45 H17        -3.0238    3.5028   -3.8342 H         1 <0>         0.1621
     46 H18        -5.4512    6.2581   -1.8973 H         1 <0>         0.1604
     47 H19        -3.5768    7.0530   -0.5180 H         1 <0>         0.1335
@<TRIPOS>BOND
     1    1    2 1
     2    1   30 1
     3    1   31 1
     4    1   32 1
     5    2    3 1
     6    3    8 ar
     7    3    4 ar
     8    4    5 ar
     9    4   33 1
    10    5    6 ar
    11    5   34 1
    12    6    7 ar
    13    6   35 1
    14    7    8 ar
    15    7    9 1
    16    8   36 1
    17    9   14 1
    18    9   10 2
    19   10   11 1
    20   10   24 1
    21   11   12 1
    22   11   13 1
    23   13   14 2
    24   13   15 1
    25   15   20 ar
    26   15   16 ar
    27   16   17 ar
    28   16   37 1
    29   17   18 ar
    30   17   38 1
    31   18   19 ar
    32   18   21 1
    33   19   20 ar
    34   19   39 1
    35   20   40 1
    36   21   22 2
    37   21   23 1
    38   23   41 1
    39   23   42 1
    40   23   43 1
    41   24   29 ar
    42   24   25 ar
    43   25   26 ar
    44   25   44 1
    45   26   27 ar
    46   26   45 1
    47   27   28 ar
    48   28   29 ar
    49   28   46 1
    50   29   47 1
@<TRIPOS>MOLECULE
ZINC04617916
   47    50     0     0     0
SMALL
USER_CHARGES

@<TRIPOS>ATOM
      1 C1          2.3081   -0.3094   -0.0216 C.3       1 <0>         0.0266
      2 O1          2.3663    1.1184   -0.0145 O.3       1 <0>        -0.3161
      3 C2          1.1816    1.7842    0.0004 C.ar      1 <0>         0.1279
      4 C3         -0.0126    1.0758    0.0080 C.ar      1 <0>        -0.2019
      5 C4         -1.2202    1.7484    0.0173 C.ar      1 <0>        -0.0773
      6 C5         -1.2460    3.1285    0.0298 C.ar      1 <0>        -0.1376
      7 C6         -0.0513    3.8478    0.0223 C.ar      1 <0>         0.0285
      8 C7          1.1659    3.1688    0.0075 C.ar      1 <0>        -0.1215
      9 C8         -0.0758    5.3294    0.0305 C.2       1 <0>         0.0805
     10 C9         -1.0084    6.1346   -0.6030 C.2       1 <0>         0.0357
     11 N1         -0.6496    7.4345   -0.3276 N.pl3     1 <0>        -0.5518
     12 H1         -1.1244    8.2592   -0.6349 H         1 <0>         0.4309
     13 C10         0.4750    7.3871    0.4430 C.2       1 <0>         0.2572
     14 N2          0.8047    6.1320    0.6480 N.2       1 <0>        -0.4479
     15 C11         1.2065    8.5613    0.9646 C.ar      1 <0>         0.0186
     16 C12         0.7599    9.8513    0.6736 C.ar      1 <0>        -0.1256
     17 C13         1.4435   10.9426    1.1686 C.ar      1 <0>        -0.0498
     18 C14         2.5763   10.7606    1.9419 C.ar      1 <0>        -0.4539
     19 C15         3.0278    9.4847    2.2289 C.ar      1 <0>        -0.0382
     20 C16         2.3499    8.3848    1.7453 C.ar      1 <0>        -0.0925
     21 S1          3.4480   12.1600    2.5636 S.o       1 <0>         1.3327
     22 O2          2.4661   13.1864    2.6046 O.2       1 <0>        -0.8526
     23 C17         4.6597   12.5340    1.2665 C.3       1 <0>        -0.4977
     24 C18        -2.1596    5.6874   -1.4095 C.ar      1 <0>         0.0243
     25 C19        -2.0179    4.6748   -2.3683 C.ar      1 <0>        -0.1399
     26 C20        -3.1218    4.2847   -3.0957 C.ar      1 <0>         0.1068
     27 N3         -4.2958    4.8577   -2.9064 N.ar      1 <0>        -0.4791
     28 C21        -4.4724    5.8179   -2.0181 C.ar      1 <0>         0.1063
     29 C22        -3.4249    6.2670   -1.2429 C.ar      1 <0>        -0.1661
     30 H2          1.7714   -0.6467   -0.9084 H         1 <0>         0.0561
     31 H3          3.3200   -0.7143   -0.0335 H         1 <0>         0.1014
     32 H4          1.7883   -0.6563    0.8715 H         1 <0>         0.0564
     33 H5          0.0021   -0.0041    0.0020 H         1 <0>         0.1298
     34 H6         -2.1461    1.1925    0.0191 H         1 <0>         0.1282
     35 H7         -2.1911    3.6510    0.0413 H         1 <0>         0.1211
     36 H8          2.0940    3.7210    0.0012 H         1 <0>         0.1361
     37 H9         -0.1216    9.9947    0.0664 H         1 <0>         0.1202
     38 H10         1.0962   11.9412    0.9482 H         1 <0>         0.1319
     39 H11         3.9127    9.3494    2.8331 H         1 <0>         0.1468
     40 H12         2.7034    7.3893    1.9700 H         1 <0>         0.1463
     41 H13         4.1384   12.7553    0.3352 H         1 <0>         0.0809
     42 H14         5.2552   13.3972    1.5635 H         1 <0>         0.1086
     43 H15         5.3136   11.6741    1.1213 H         1 <0>         0.1130
     44 H16        -1.0594    4.2047   -2.5318 H         1 <0>         0.1405
     45 H17        -3.0238    3.5028   -3.8342 H         1 <0>         0.1621
     46 H18        -5.4512    6.2581   -1.8973 H         1 <0>         0.1604
     47 H19        -3.5768    7.0530   -0.5180 H         1 <0>         0.1335
@<TRIPOS>BOND
     1    1    2 1
     2    1   30 1
     3    1   31 1
     4    1   32 1
     5    2    3 1
     6    3    8 ar
     7    3    4 ar
     8    4    5 ar
     9    4   33 1
    10    5    6 ar
    11    5   34 1
    12    6    7 ar
    13    6   35 1
    14    7    8 ar
    15    7    9 1
    16    8   36 1
    17    9   14 1
    18    9   10 2
    19   10   11 1
    20   10   24 1
    21   11   12 1
    22   11   13 1
    23   13   14 2
    24   13   15 1
    25   15   20 ar
    26   15   16 ar
    27   16   17 ar
    28   16   37 1
    29   17   18 ar
    30   17   38 1
    31   18   19 ar
    32   18   21 1
    33   19   20 ar
    34   19   39 1
    35   20   40 1
    36   21   22 2
    37   21   23 1
    38   23   41 1
    39   23   42 1
    40   23   43 1
    41   24   29 ar
    42   24   25 ar
    43   25   26 ar
    44   25   44 1
    45   26   27 ar
    46   26   45 1
    47   27   28 ar
    48   28   29 ar
    49   28   46 1
    50   29   47 1
@<TRIPOS>MOLECULE
ZINC04617917
   47    50     0     0     0
SMALL
USER_CHARGES

@<TRIPOS>ATOM
      1 C1         -2.2133    4.2959    0.9185 C.ar      1 <0>        -0.0949
      2 C2         -1.0855    3.5331    0.6959 C.ar      1 <0>        -0.0711
      3 C3         -1.2111    2.1692    0.4274 C.ar      1 <0>        -0.0163
      4 C4         -2.4788    1.5872    0.3807 C.ar      1 <0>        -0.1063
      5 C5         -3.5982    2.3601    0.6107 C.ar      1 <0>        -0.0938
      6 C6         -3.4668    3.7117    0.8760 C.ar      1 <0>        -0.0570
      7 C7         -4.6944    4.5511    1.1201 C.3       1 <0>        -0.0375
      8 C8         -5.1875    5.1123   -0.1887 C.2       1 <0>         0.4667
      9 N1         -4.5533    4.8355   -1.3002 N.2       1 <0>        -0.5057
     10 C9         -4.9967    5.3402   -2.4769 C.1       1 <0>         0.3597
     11 N2         -5.3685    5.7633   -3.4635 N.1       1 <0>        -0.4518
     12 N3         -6.2907    5.9058   -0.2152 N.pl3     1 <0>        -0.8538
     13 C10        -0.0068    1.3459    0.1874 C.2       1 <0>         0.2705
     14 N4         -0.0043    0.0090   -0.0835 N.pl3     1 <0>        -0.5534
     15 H1         -0.8062   -0.5846   -0.1512 H         1 <0>         0.4302
     16 C11         1.3092   -0.3700   -0.2463 C.2       1 <0>         0.0271
     17 C12         2.0708    0.7730   -0.0648 C.2       1 <0>         0.0793
     18 N5          1.2309    1.7866    0.1955 N.2       1 <0>        -0.4565
     19 C13         3.5478    0.8606   -0.1446 C.ar      1 <0>        -0.0184
     20 C14         4.3396   -0.1316    0.4327 C.ar      1 <0>        -0.0705
     21 C15         5.7142   -0.0478    0.3520 C.ar      1 <0>        -0.1515
     22 C16         6.3085    1.0249   -0.2930 C.ar      1 <0>         0.1041
     23 C17         5.5261    2.0159   -0.8637 C.ar      1 <0>        -0.1527
     24 C18         4.1506    1.9385   -0.7924 C.ar      1 <0>        -0.0606
     25 F1          7.6552    1.1050   -0.3654 F         1 <0>        -0.1380
     26 C19         1.8067   -1.7240   -0.5536 C.ar      1 <0>         0.0263
     27 C20         2.7528   -1.9314   -1.5669 C.ar      1 <0>        -0.1436
     28 C21         3.1934   -3.2133   -1.8168 C.ar      1 <0>         0.1075
     29 N6          2.7295   -4.2370   -1.1244 N.ar      1 <0>        -0.4801
     30 C22         1.8348   -4.0873   -0.1655 C.ar      1 <0>         0.1060
     31 C23         1.3426   -2.8405    0.1556 C.ar      1 <0>        -0.1661
     32 H2         -2.1176    5.3513    1.1268 H         1 <0>         0.1292
     33 H3         -0.1077    3.9904    0.7291 H         1 <0>         0.1382
     34 H4         -2.5830    0.5333    0.1690 H         1 <0>         0.1172
     35 H5         -4.5795    1.9101    0.5793 H         1 <0>         0.1271
     36 H6         -5.4735    3.9338    1.5674 H         1 <0>         0.1169
     37 H7         -4.4464    5.3695    1.7960 H         1 <0>         0.1179
     38 H8         -6.7605    6.1108    0.6083 H         1 <0>         0.4102
     39 H9         -6.6081    6.2670   -1.0576 H         1 <0>         0.4070
     40 H10         3.8773   -0.9660    0.9392 H         1 <0>         0.1286
     41 H11         6.3282   -0.8175    0.7959 H         1 <0>         0.1379
     42 H12         5.9938    2.8505   -1.3648 H         1 <0>         0.1393
     43 H13         3.5416    2.7116   -1.2371 H         1 <0>         0.1378
     44 H14         3.1336   -1.0992   -2.1403 H         1 <0>         0.1393
     45 H15         3.9249   -3.3832   -2.5929 H         1 <0>         0.1615
     46 H16         1.4832   -4.9539    0.3748 H         1 <0>         0.1600
     47 H17         0.6109   -2.7256    0.9416 H         1 <0>         0.1341
@<TRIPOS>BOND
     1    1    6 ar
     2    1    2 ar
     3    1   32 1
     4    2    3 ar
     5    2   33 1
     6    3    4 ar
     7    3   13 1
     8    4    5 ar
     9    4   34 1
    10    5    6 ar
    11    5   35 1
    12    6    7 1
    13    7    8 1
    14    7   36 1
    15    7   37 1
    16    8    9 2
    17    8   12 1
    18    9   10 1
    19   10   11 3
    20   12   38 1
    21   12   39 1
    22   13   18 2
    23   13   14 1
    24   14   15 1
    25   14   16 1
    26   16   17 2
    27   16   26 1
    28   17   18 1
    29   17   19 1
    30   19   24 ar
    31   19   20 ar
    32   20   21 ar
    33   20   40 1
    34   21   22 ar
    35   21   41 1
    36   22   23 ar
    37   22   25 1
    38   23   24 ar
    39   23   42 1
    40   24   43 1
    41   26   31 ar
    42   26   27 ar
    43   27   28 ar
    44   27   44 1
    45   28   29 ar
    46   28   45 1
    47   29   30 ar
    48   30   31 ar
    49   30   46 1
    50   31   47 1
@<TRIPOS>MOLECULE
ZINC04617917
   47    50     0     0     0
SMALL
USER_CHARGES

@<TRIPOS>ATOM
      1 C1         -2.2133    4.2959    0.9185 C.ar      1 <0>        -0.0949
      2 C2         -1.0855    3.5331    0.6959 C.ar      1 <0>        -0.0711
      3 C3         -1.2111    2.1692    0.4274 C.ar      1 <0>        -0.0163
      4 C4         -2.4788    1.5872    0.3807 C.ar      1 <0>        -0.1063
      5 C5         -3.5982    2.3601    0.6107 C.ar      1 <0>        -0.0938
      6 C6         -3.4668    3.7117    0.8760 C.ar      1 <0>        -0.0570
      7 C7         -4.6944    4.5511    1.1201 C.3       1 <0>        -0.0375
      8 C8         -5.1875    5.1123   -0.1887 C.2       1 <0>         0.4667
      9 N1         -4.5533    4.8355   -1.3002 N.2       1 <0>        -0.5057
     10 C9         -4.9967    5.3402   -2.4769 C.1       1 <0>         0.3597
     11 N2         -5.3685    5.7633   -3.4635 N.1       1 <0>        -0.4518
     12 N3         -6.2907    5.9058   -0.2152 N.pl3     1 <0>        -0.8538
     13 C10        -0.0068    1.3459    0.1874 C.2       1 <0>         0.2705
     14 N4         -0.0043    0.0090   -0.0835 N.pl3     1 <0>        -0.5534
     15 H1         -0.8062   -0.5846   -0.1512 H         1 <0>         0.4302
     16 C11         1.3092   -0.3700   -0.2463 C.2       1 <0>         0.0271
     17 C12         2.0708    0.7730   -0.0648 C.2       1 <0>         0.0793
     18 N5          1.2309    1.7866    0.1955 N.2       1 <0>        -0.4565
     19 C13         3.5478    0.8606   -0.1446 C.ar      1 <0>        -0.0184
     20 C14         4.3396   -0.1316    0.4327 C.ar      1 <0>        -0.0705
     21 C15         5.7142   -0.0478    0.3520 C.ar      1 <0>        -0.1515
     22 C16         6.3085    1.0249   -0.2930 C.ar      1 <0>         0.1041
     23 C17         5.5261    2.0159   -0.8637 C.ar      1 <0>        -0.1527
     24 C18         4.1506    1.9385   -0.7924 C.ar      1 <0>        -0.0606
     25 F1          7.6552    1.1050   -0.3654 F         1 <0>        -0.1380
     26 C19         1.8067   -1.7240   -0.5536 C.ar      1 <0>         0.0263
     27 C20         2.7528   -1.9314   -1.5669 C.ar      1 <0>        -0.1436
     28 C21         3.1934   -3.2133   -1.8168 C.ar      1 <0>         0.1075
     29 N6          2.7295   -4.2370   -1.1244 N.ar      1 <0>        -0.4801
     30 C22         1.8348   -4.0873   -0.1655 C.ar      1 <0>         0.1060
     31 C23         1.3426   -2.8405    0.1556 C.ar      1 <0>        -0.1661
     32 H2         -2.1176    5.3513    1.1268 H         1 <0>         0.1292
     33 H3         -0.1077    3.9904    0.7291 H         1 <0>         0.1382
     34 H4         -2.5830    0.5333    0.1690 H         1 <0>         0.1172
     35 H5         -4.5795    1.9101    0.5793 H         1 <0>         0.1271
     36 H6         -5.4735    3.9338    1.5674 H         1 <0>         0.1169
     37 H7         -4.4464    5.3695    1.7960 H         1 <0>         0.1179
     38 H8         -6.7605    6.1108    0.6083 H         1 <0>         0.4102
     39 H9         -6.6081    6.2670   -1.0576 H         1 <0>         0.4070
     40 H10         3.8773   -0.9660    0.9392 H         1 <0>         0.1286
     41 H11         6.3282   -0.8175    0.7959 H         1 <0>         0.1379
     42 H12         5.9938    2.8505   -1.3648 H         1 <0>         0.1393
     43 H13         3.5416    2.7116   -1.2371 H         1 <0>         0.1378
     44 H14         3.1336   -1.0992   -2.1403 H         1 <0>         0.1393
     45 H15         3.9249   -3.3832   -2.5929 H         1 <0>         0.1615
     46 H16         1.4832   -4.9539    0.3748 H         1 <0>         0.1600
     47 H17         0.6109   -2.7256    0.9416 H         1 <0>         0.1341
@<TRIPOS>BOND
     1    1    6 ar
     2    1    2 ar
     3    1   32 1
     4    2    3 ar
     5    2   33 1
     6    3    4 ar
     7    3   13 1
     8    4    5 ar
     9    4   34 1
    10    5    6 ar
    11    5   35 1
    12    6    7 1
    13    7    8 1
    14    7   36 1
    15    7   37 1
    16    8    9 2
    17    8   12 1
    18    9   10 1
    19   10   11 3
    20   12   38 1
    21   12   39 1
    22   13   18 2
    23   13   14 1
    24   14   15 1
    25   14   16 1
    26   16   17 2
    27   16   26 1
    28   17   18 1
    29   17   19 1
    30   19   24 ar
    31   19   20 ar
    32   20   21 ar
    33   20   40 1
    34   21   22 ar
    35   21   41 1
    36   22   23 ar
    37   22   25 1
    38   23   24 ar
    39   23   42 1
    40   24   43 1
    41   26   31 ar
    42   26   27 ar
    43   27   28 ar
    44   27   44 1
    45   28   29 ar
    46   28   45 1
    47   29   30 ar
    48   30   31 ar
    49   30   46 1
    50   31   47 1
@<TRIPOS>MOLECULE
ZINC04617918
   49    53     0     0     0
SMALL
USER_CHARGES

@<TRIPOS>ATOM
      1 C1         -2.0091    2.5988    1.0180 C.3       1 <0>        -0.4979
      2 S1         -1.5220    2.2391   -0.6919 S.o       1 <0>         1.3315
      3 O1         -2.4022    1.2679   -1.2408 O.2       1 <0>        -0.8501
      4 C2          0.0090    1.3826   -0.5279 C.ar      1 <0>        -0.4537
      5 C3          1.1973    2.0912   -0.5211 C.ar      1 <0>        -0.0372
      6 C4          2.3998    1.4263   -0.3989 C.ar      1 <0>        -0.1280
      7 C5          2.4159    0.0354   -0.2817 C.ar      1 <0>         0.0178
      8 C6          1.2134   -0.6734   -0.2891 C.ar      1 <0>        -0.0900
      9 C7          0.0179    0.0038   -0.4121 C.ar      1 <0>        -0.0507
     10 C8          3.7008   -0.6838   -0.1507 C.2       1 <0>         0.2577
     11 N1          4.9336   -0.1011   -0.1311 N.pl3     1 <0>        -0.5481
     12 H1          5.1293    0.8770   -0.2023 H         1 <0>         0.4319
     13 C9          5.8591   -1.1131    0.0052 C.2       1 <0>         0.0342
     14 C10         5.1363   -2.2970    0.0644 C.2       1 <0>         0.0820
     15 N2          3.8355   -1.9856   -0.0291 N.2       1 <0>        -0.4505
     16 C11         5.7005   -3.6589    0.2099 C.ar      1 <0>        -0.0184
     17 C12         5.1726   -4.7176   -0.5290 C.ar      1 <0>        -0.0608
     18 C13         5.7049   -5.9829   -0.3939 C.ar      1 <0>        -0.1521
     19 C14         6.7551   -6.2053    0.4824 C.ar      1 <0>         0.1058
     20 C15         7.2795   -5.1578    1.2226 C.ar      1 <0>        -0.1507
     21 C16         6.7576   -3.8879    1.0906 C.ar      1 <0>        -0.0699
     22 F1          7.2691   -7.4476    0.6157 F         1 <0>        -0.1374
     23 C17         7.3205   -0.9679    0.0750 C.ar      1 <0>         0.0340
     24 C18         7.9381   -0.3298    1.1525 C.ar      1 <0>        -0.1573
     25 C19         9.3194   -0.2158    1.1771 C.ar      1 <0>         0.1357
     26 N3         10.0846   -0.6859    0.2214 N.ar      1 <0>        -0.4660
     27 C20         9.5896   -1.3123   -0.8509 C.ar      1 <0>         0.1288
     28 C21         8.1912   -1.4919   -0.9796 C.ar      1 <0>        -0.0761
     29 C22         7.6733   -2.1523   -2.0980 C.ar      1 <0>        -0.0923
     30 C23         8.5234   -2.6238   -3.0548 C.ar      1 <0>        -0.1074
     31 C24         9.8999   -2.4547   -2.9309 C.ar      1 <0>        -0.0978
     32 C25        10.4348   -1.8059   -1.8598 C.ar      1 <0>        -0.0908
     33 H2         -1.2436    3.2130    1.4923 H         1 <0>         0.1119
     34 H3         -2.9581    3.1349    1.0204 H         1 <0>         0.1086
     35 H4         -2.1181    1.6646    1.5689 H         1 <0>         0.0821
     36 H5          1.1835    3.1673   -0.6122 H         1 <0>         0.1446
     37 H6          3.3267    1.9806   -0.3934 H         1 <0>         0.1251
     38 H7          1.2190   -1.7496   -0.1992 H         1 <0>         0.1412
     39 H8         -0.9132   -0.5434   -0.4184 H         1 <0>         0.1339
     40 H9          4.3512   -4.5461   -1.2089 H         1 <0>         0.1372
     41 H10         5.2998   -6.8025   -0.9690 H         1 <0>         0.1397
     42 H11         8.0981   -5.3362    1.9043 H         1 <0>         0.1379
     43 H12         7.1665   -3.0722    1.6685 H         1 <0>         0.1283
     44 H13         7.3444    0.0716    1.9605 H         1 <0>         0.1406
     45 H14         9.7838    0.2801    2.0165 H         1 <0>         0.1634
     46 H15         6.6070   -2.2880   -2.2037 H         1 <0>         0.1270
     47 H16         8.1241   -3.1340   -3.9188 H         1 <0>         0.1300
     48 H17        10.5534   -2.8362   -3.7015 H         1 <0>         0.1333
     49 H18        11.5048   -1.6832   -1.7790 H         1 <0>         0.1390
@<TRIPOS>BOND
     1    1    2 1
     2    1   33 1
     3    1   34 1
     4    1   35 1
     5    2    3 2
     6    2    4 1
     7    4    9 ar
     8    4    5 ar
     9    5    6 ar
    10    5   36 1
    11    6    7 ar
    12    6   37 1
    13    7    8 ar
    14    7   10 1
    15    8    9 ar
    16    8   38 1
    17    9   39 1
    18   10   15 2
    19   10   11 1
    20   11   12 1
    21   11   13 1
    22   13   14 2
    23   13   23 1
    24   14   15 1
    25   14   16 1
    26   16   21 ar
    27   16   17 ar
    28   17   18 ar
    29   17   40 1
    30   18   19 ar
    31   18   41 1
    32   19   20 ar
    33   19   22 1
    34   20   21 ar
    35   20   42 1
    36   21   43 1
    37   23   28 ar
    38   23   24 ar
    39   24   25 ar
    40   24   44 1
    41   25   26 ar
    42   25   45 1
    43   26   27 ar
    44   27   32 ar
    45   27   28 ar
    46   28   29 ar
    47   29   30 ar
    48   29   46 1
    49   30   31 ar
    50   30   47 1
    51   31   32 ar
    52   31   48 1
    53   32   49 1
@<TRIPOS>MOLECULE
ZINC04617918
   49    53     0     0     0
SMALL
USER_CHARGES

@<TRIPOS>ATOM
      1 C1         -2.0091    2.5988    1.0180 C.3       1 <0>        -0.4979
      2 S1         -1.5220    2.2391   -0.6919 S.o       1 <0>         1.3315
      3 O1         -2.4022    1.2679   -1.2408 O.2       1 <0>        -0.8501
      4 C2          0.0090    1.3826   -0.5279 C.ar      1 <0>        -0.4537
      5 C3          1.1973    2.0912   -0.5211 C.ar      1 <0>        -0.0372
      6 C4          2.3998    1.4263   -0.3989 C.ar      1 <0>        -0.1280
      7 C5          2.4159    0.0354   -0.2817 C.ar      1 <0>         0.0178
      8 C6          1.2134   -0.6734   -0.2891 C.ar      1 <0>        -0.0900
      9 C7          0.0179    0.0038   -0.4121 C.ar      1 <0>        -0.0507
     10 C8          3.7008   -0.6838   -0.1507 C.2       1 <0>         0.2577
     11 N1          4.9336   -0.1011   -0.1311 N.pl3     1 <0>        -0.5481
     12 H1          5.1293    0.8770   -0.2023 H         1 <0>         0.4319
     13 C9          5.8591   -1.1131    0.0052 C.2       1 <0>         0.0342
     14 C10         5.1363   -2.2970    0.0644 C.2       1 <0>         0.0820
     15 N2          3.8355   -1.9856   -0.0291 N.2       1 <0>        -0.4505
     16 C11         5.7005   -3.6589    0.2099 C.ar      1 <0>        -0.0184
     17 C12         5.1726   -4.7176   -0.5290 C.ar      1 <0>        -0.0608
     18 C13         5.7049   -5.9829   -0.3939 C.ar      1 <0>        -0.1521
     19 C14         6.7551   -6.2053    0.4824 C.ar      1 <0>         0.1058
     20 C15         7.2795   -5.1578    1.2226 C.ar      1 <0>        -0.1507
     21 C16         6.7576   -3.8879    1.0906 C.ar      1 <0>        -0.0699
     22 F1          7.2691   -7.4476    0.6157 F         1 <0>        -0.1374
     23 C17         7.3205   -0.9679    0.0750 C.ar      1 <0>         0.0340
     24 C18         7.9381   -0.3298    1.1525 C.ar      1 <0>        -0.1573
     25 C19         9.3194   -0.2158    1.1771 C.ar      1 <0>         0.1357
     26 N3         10.0846   -0.6859    0.2214 N.ar      1 <0>        -0.4660
     27 C20         9.5896   -1.3123   -0.8509 C.ar      1 <0>         0.1288
     28 C21         8.1912   -1.4919   -0.9796 C.ar      1 <0>        -0.0761
     29 C22         7.6733   -2.1523   -2.0980 C.ar      1 <0>        -0.0923
     30 C23         8.5234   -2.6238   -3.0548 C.ar      1 <0>        -0.1074
     31 C24         9.8999   -2.4547   -2.9309 C.ar      1 <0>        -0.0978
     32 C25        10.4348   -1.8059   -1.8598 C.ar      1 <0>        -0.0908
     33 H2         -1.2436    3.2130    1.4923 H         1 <0>         0.1119
     34 H3         -2.9581    3.1349    1.0204 H         1 <0>         0.1086
     35 H4         -2.1181    1.6646    1.5689 H         1 <0>         0.0821
     36 H5          1.1835    3.1673   -0.6122 H         1 <0>         0.1446
     37 H6          3.3267    1.9806   -0.3934 H         1 <0>         0.1251
     38 H7          1.2190   -1.7496   -0.1992 H         1 <0>         0.1412
     39 H8         -0.9132   -0.5434   -0.4184 H         1 <0>         0.1339
     40 H9          4.3512   -4.5461   -1.2089 H         1 <0>         0.1372
     41 H10         5.2998   -6.8025   -0.9690 H         1 <0>         0.1397
     42 H11         8.0981   -5.3362    1.9043 H         1 <0>         0.1379
     43 H12         7.1665   -3.0722    1.6685 H         1 <0>         0.1283
     44 H13         7.3444    0.0716    1.9605 H         1 <0>         0.1406
     45 H14         9.7838    0.2801    2.0165 H         1 <0>         0.1634
     46 H15         6.6070   -2.2880   -2.2037 H         1 <0>         0.1270
     47 H16         8.1241   -3.1340   -3.9188 H         1 <0>         0.1300
     48 H17        10.5534   -2.8362   -3.7015 H         1 <0>         0.1333
     49 H18        11.5048   -1.6832   -1.7790 H         1 <0>         0.1390
@<TRIPOS>BOND
     1    1    2 1
     2    1   33 1
     3    1   34 1
     4    1   35 1
     5    2    3 2
     6    2    4 1
     7    4    9 ar
     8    4    5 ar
     9    5    6 ar
    10    5   36 1
    11    6    7 ar
    12    6   37 1
    13    7    8 ar
    14    7   10 1
    15    8    9 ar
    16    8   38 1
    17    9   39 1
    18   10   15 2
    19   10   11 1
    20   11   12 1
    21   11   13 1
    22   13   14 2
    23   13   23 1
    24   14   15 1
    25   14   16 1
    26   16   21 ar
    27   16   17 ar
    28   17   18 ar
    29   17   40 1
    30   18   19 ar
    31   18   41 1
    32   19   20 ar
    33   19   22 1
    34   20   21 ar
    35   20   42 1
    36   21   43 1
    37   23   28 ar
    38   23   24 ar
    39   24   25 ar
    40   24   44 1
    41   25   26 ar
    42   25   45 1
    43   26   27 ar
    44   27   32 ar
    45   27   28 ar
    46   28   29 ar
    47   29   30 ar
    48   29   46 1
    49   30   31 ar
    50   30   47 1
    51   31   32 ar
    52   31   48 1
    53   32   49 1
@<TRIPOS>MOLECULE
ZINC04617919
   43    46     0     0     0
SMALL
USER_CHARGES

@<TRIPOS>ATOM
      1 C1          2.7566    7.8497    2.4668 C.3       1 <0>        -0.4982
      2 S1          2.7889    7.5617    0.6761 S.o       1 <0>         1.3303
      3 O1          4.1322    7.5998    0.2144 O.2       1 <0>        -0.8612
      4 C2          2.3283    5.8693    0.5082 C.ar      1 <0>        -0.4659
      5 C3          0.9943    5.5289    0.3702 C.ar      1 <0>        -0.0388
      6 C4          0.6269    4.2057    0.2383 C.ar      1 <0>        -0.0916
      7 C5          1.6043    3.2094    0.2448 C.ar      1 <0>         0.0457
      8 C6          2.9477    3.5591    0.3902 C.ar      1 <0>        -0.1354
      9 C7          3.3021    4.8865    0.5155 C.ar      1 <0>        -0.0522
     10 C8          1.2178    1.7893    0.1044 C.2       1 <0>         0.2215
     11 N1          2.0801    0.7325    0.0971 N.pl3     1 <0>        -0.5620
     12 H1          3.0752    0.7776    0.1846 H         1 <0>         0.4173
     13 C9          1.3232   -0.4085   -0.0534 C.2       1 <0>        -0.0097
     14 C10         0.0033    0.0066   -0.1335 C.2       1 <0>         0.1503
     15 N2         -0.0110    1.3447   -0.0332 N.2       1 <0>        -0.3919
     16 C11        -1.1791   -0.8694   -0.2994 C.ar      1 <0>        -0.0714
     17 C12        -1.1830   -1.8633   -1.2765 C.ar      1 <0>        -0.0784
     18 C13        -2.2874   -2.6769   -1.4270 C.ar      1 <0>        -0.1884
     19 C14        -3.3935   -2.5113   -0.6110 C.ar      1 <0>        -0.0953
     20 C15        -3.4029   -1.5303    0.3613 C.ar      1 <0>        -0.1579
     21 C16        -2.2977   -0.7071    0.5290 C.ar      1 <0>         0.1577
     22 C17         1.8188   -1.7957   -0.1163 C.ar      1 <0>         0.0497
     23 C18         1.2215   -2.8098    0.6457 C.ar      1 <0>        -0.1349
     24 C19         1.7146   -4.0934    0.5521 C.ar      1 <0>         0.1023
     25 N3          2.7393   -4.3709   -0.2324 N.ar      1 <0>        -0.4903
     26 C20         3.3343   -3.4461   -0.9626 C.ar      1 <0>         0.0964
     27 C21         2.9043   -2.1370   -0.9353 C.ar      1 <0>        -0.1745
     28 H2          3.4653    7.1808    2.9552 H         1 <0>         0.0795
     29 H3          3.0316    8.8840    2.6735 H         1 <0>         0.1043
     30 H4          1.7536    7.6573    2.8478 H         1 <0>         0.1126
     31 H5          0.2390    6.3009    0.3653 H         1 <0>         0.1419
     32 H6         -0.4146    3.9415    0.1299 H         1 <0>         0.1500
     33 H7          3.7085    2.7925    0.4001 H         1 <0>         0.1171
     34 H8          4.3416    5.1587    0.6236 H         1 <0>         0.1260
     35 H9         -0.3225   -1.9963   -1.9155 H         1 <0>         0.0998
     36 H10        -2.2888   -3.4466   -2.1847 H         1 <0>         0.1051
     37 H11        -4.2537   -3.1524   -0.7355 H         1 <0>         0.1053
     38 H12        -4.2690   -1.4064    0.9946 H         1 <0>         0.1122
     39 H13         0.3857   -2.5892    1.2931 H         1 <0>         0.1415
     40 H14         1.2590   -4.8823    1.1322 H         1 <0>         0.1577
     41 H15         4.1700   -3.7191   -1.5900 H         1 <0>         0.1533
     42 H16         3.3957   -1.3857   -1.5357 H         1 <0>         0.1286
     43 S2         -2.3038    0.5401    1.7736 S.3       1 <0>        -0.9083
@<TRIPOS>BOND
     1    1    2 1
     2    1   28 1
     3    1   29 1
     4    1   30 1
     5    2    3 2
     6    2    4 1
     7    4    9 ar
     8    4    5 ar
     9    5    6 ar
    10    5   31 1
    11    6    7 ar
    12    6   32 1
    13    7    8 ar
    14    7   10 1
    15    8    9 ar
    16    8   33 1
    17    9   34 1
    18   10   15 2
    19   10   11 1
    20   11   12 1
    21   11   13 1
    22   13   14 2
    23   13   22 1
    24   14   15 1
    25   14   16 1
    26   16   21 ar
    27   16   17 ar
    28   17   18 ar
    29   17   35 1
    30   18   19 ar
    31   18   36 1
    32   19   20 ar
    33   19   37 1
    34   20   21 ar
    35   20   38 1
    36   21   43 1
    37   22   27 ar
    38   22   23 ar
    39   23   24 ar
    40   23   39 1
    41   24   25 ar
    42   24   40 1
    43   25   26 ar
    44   26   27 ar
    45   26   41 1
    46   27   42 1
@<TRIPOS>MOLECULE
ZINC04617919
   43    46     0     0     0
SMALL
USER_CHARGES

@<TRIPOS>ATOM
      1 C1          2.7566    7.8497    2.4668 C.3       1 <0>        -0.4982
      2 S1          2.7889    7.5617    0.6761 S.o       1 <0>         1.3303
      3 O1          4.1322    7.5998    0.2144 O.2       1 <0>        -0.8612
      4 C2          2.3283    5.8693    0.5082 C.ar      1 <0>        -0.4659
      5 C3          0.9943    5.5289    0.3702 C.ar      1 <0>        -0.0388
      6 C4          0.6269    4.2057    0.2383 C.ar      1 <0>        -0.0916
      7 C5          1.6043    3.2094    0.2448 C.ar      1 <0>         0.0457
      8 C6          2.9477    3.5591    0.3902 C.ar      1 <0>        -0.1354
      9 C7          3.3021    4.8865    0.5155 C.ar      1 <0>        -0.0522
     10 C8          1.2178    1.7893    0.1044 C.2       1 <0>         0.2215
     11 N1          2.0801    0.7325    0.0971 N.pl3     1 <0>        -0.5620
     12 H1          3.0752    0.7776    0.1846 H         1 <0>         0.4173
     13 C9          1.3232   -0.4085   -0.0534 C.2       1 <0>        -0.0097
     14 C10         0.0033    0.0066   -0.1335 C.2       1 <0>         0.1503
     15 N2         -0.0110    1.3447   -0.0332 N.2       1 <0>        -0.3919
     16 C11        -1.1791   -0.8694   -0.2994 C.ar      1 <0>        -0.0714
     17 C12        -1.1830   -1.8633   -1.2765 C.ar      1 <0>        -0.0784
     18 C13        -2.2874   -2.6769   -1.4270 C.ar      1 <0>        -0.1884
     19 C14        -3.3935   -2.5113   -0.6110 C.ar      1 <0>        -0.0953
     20 C15        -3.4029   -1.5303    0.3613 C.ar      1 <0>        -0.1579
     21 C16        -2.2977   -0.7071    0.5290 C.ar      1 <0>         0.1577
     22 C17         1.8188   -1.7957   -0.1163 C.ar      1 <0>         0.0497
     23 C18         1.2215   -2.8098    0.6457 C.ar      1 <0>        -0.1349
     24 C19         1.7146   -4.0934    0.5521 C.ar      1 <0>         0.1023
     25 N3          2.7393   -4.3709   -0.2324 N.ar      1 <0>        -0.4903
     26 C20         3.3343   -3.4461   -0.9626 C.ar      1 <0>         0.0964
     27 C21         2.9043   -2.1370   -0.9353 C.ar      1 <0>        -0.1745
     28 H2          3.4653    7.1808    2.9552 H         1 <0>         0.0795
     29 H3          3.0316    8.8840    2.6735 H         1 <0>         0.1043
     30 H4          1.7536    7.6573    2.8478 H         1 <0>         0.1126
     31 H5          0.2390    6.3009    0.3653 H         1 <0>         0.1419
     32 H6         -0.4146    3.9415    0.1299 H         1 <0>         0.1500
     33 H7          3.7085    2.7925    0.4001 H         1 <0>         0.1171
     34 H8          4.3416    5.1587    0.6236 H         1 <0>         0.1260
     35 H9         -0.3225   -1.9963   -1.9155 H         1 <0>         0.0998
     36 H10        -2.2888   -3.4466   -2.1847 H         1 <0>         0.1051
     37 H11        -4.2537   -3.1524   -0.7355 H         1 <0>         0.1053
     38 H12        -4.2690   -1.4064    0.9946 H         1 <0>         0.1122
     39 H13         0.3857   -2.5892    1.2931 H         1 <0>         0.1415
     40 H14         1.2590   -4.8823    1.1322 H         1 <0>         0.1577
     41 H15         4.1700   -3.7191   -1.5900 H         1 <0>         0.1533
     42 H16         3.3957   -1.3857   -1.5357 H         1 <0>         0.1286
     43 S2         -2.3038    0.5401    1.7736 S.3       1 <0>        -0.9083
@<TRIPOS>BOND
     1    1    2 1
     2    1   28 1
     3    1   29 1
     4    1   30 1
     5    2    3 2
     6    2    4 1
     7    4    9 ar
     8    4    5 ar
     9    5    6 ar
    10    5   31 1
    11    6    7 ar
    12    6   32 1
    13    7    8 ar
    14    7   10 1
    15    8    9 ar
    16    8   33 1
    17    9   34 1
    18   10   15 2
    19   10   11 1
    20   11   12 1
    21   11   13 1
    22   13   14 2
    23   13   22 1
    24   14   15 1
    25   14   16 1
    26   16   21 ar
    27   16   17 ar
    28   17   18 ar
    29   17   35 1
    30   18   19 ar
    31   18   36 1
    32   19   20 ar
    33   19   37 1
    34   20   21 ar
    35   20   38 1
    36   21   43 1
    37   22   27 ar
    38   22   23 ar
    39   23   24 ar
    40   23   39 1
    41   24   25 ar
    42   24   40 1
    43   25   26 ar
    44   26   27 ar
    45   26   41 1
    46   27   42 1
@<TRIPOS>MOLECULE
ZINC04617920
   43    46     0     0     0
SMALL
USER_CHARGES

@<TRIPOS>ATOM
      1 C1         -1.8095    2.2456    2.4704 C.3       1 <0>        -0.4990
      2 S1         -1.5164    2.2313    0.6803 S.o       1 <0>         1.3284
      3 O1         -2.4619    1.3765    0.0523 O.2       1 <0>        -0.8566
      4 C2          0.0139    1.3755    0.5058 C.ar      1 <0>        -0.4665
      5 C3          1.2036    2.0817    0.5205 C.ar      1 <0>        -0.0411
      6 C4          2.4049    1.4184    0.3785 C.ar      1 <0>        -0.1379
      7 C5          2.4183    0.0318    0.2194 C.ar      1 <0>         0.0454
      8 C6          1.2146   -0.6746    0.2055 C.ar      1 <0>        -0.0892
      9 C7          0.0202    0.0009    0.3489 C.ar      1 <0>        -0.0498
     10 C8          3.7019   -0.6855    0.0658 C.2       1 <0>         0.2219
     11 N1          4.9359   -0.1045    0.0582 N.pl3     1 <0>        -0.5612
     12 H1          5.1333    0.8713    0.1520 H         1 <0>         0.4176
     13 C9          5.8592   -1.1140   -0.1030 C.2       1 <0>        -0.0096
     14 C10         5.1362   -2.2926   -0.1984 C.2       1 <0>         0.1504
     15 N2          3.8348   -1.9833   -0.0907 N.2       1 <0>        -0.3936
     16 C11         5.6988   -3.6496   -0.3848 C.ar      1 <0>        -0.0720
     17 C12         6.6598   -3.8806   -1.3674 C.ar      1 <0>        -0.0781
     18 C13         7.1810   -5.1471   -1.5371 C.ar      1 <0>        -0.1886
     19 C14         6.7536   -6.1915   -0.7350 C.ar      1 <0>        -0.0951
     20 C15         5.8018   -5.9765    0.2426 C.ar      1 <0>        -0.1580
     21 C16         5.2720   -4.7071    0.4297 C.ar      1 <0>         0.1575
     22 C17         7.3251   -0.9688   -0.1668 C.ar      1 <0>         0.0504
     23 C18         8.1656   -1.8049    0.5816 C.ar      1 <0>        -0.1351
     24 C19         9.5302   -1.6367    0.4876 C.ar      1 <0>         0.1025
     25 N3         10.0464   -0.6987   -0.2846 N.ar      1 <0>        -0.4905
     26 C20         9.2921    0.1131   -1.0019 C.ar      1 <0>         0.0963
     27 C21         7.9178    0.0131   -0.9732 C.ar      1 <0>        -0.1745
     28 H2         -0.9901    2.7636    2.9687 H         1 <0>         0.1102
     29 H3         -2.7467    2.7608    2.6810 H         1 <0>         0.1040
     30 H4         -1.8680    1.2208    2.8371 H         1 <0>         0.0819
     31 H5          1.1918    3.1547    0.6430 H         1 <0>         0.1382
     32 H6          3.3328    1.9708    0.3902 H         1 <0>         0.1219
     33 H7          1.2181   -1.7476    0.0824 H         1 <0>         0.1452
     34 H8         -0.9119   -0.5445    0.3382 H         1 <0>         0.1294
     35 H9          6.9961   -3.0692   -1.9958 H         1 <0>         0.1001
     36 H10         7.9259   -5.3243   -2.2988 H         1 <0>         0.1053
     37 H11         7.1664   -7.1797   -0.8747 H         1 <0>         0.1054
     38 H12         5.4728   -6.7956    0.8649 H         1 <0>         0.1120
     39 H13         7.7501   -2.5714    1.2190 H         1 <0>         0.1412
     40 H14        10.1863   -2.2781    1.0573 H         1 <0>         0.1575
     41 H15         9.7583    0.8664   -1.6196 H         1 <0>         0.1533
     42 H16         7.3070    0.6805   -1.5629 H         1 <0>         0.1289
     43 S2          4.0631   -4.4282    1.6809 S.3       1 <0>        -0.9084
@<TRIPOS>BOND
     1    1    2 1
     2    1   28 1
     3    1   29 1
     4    1   30 1
     5    2    3 2
     6    2    4 1
     7    4    9 ar
     8    4    5 ar
     9    5    6 ar
    10    5   31 1
    11    6    7 ar
    12    6   32 1
    13    7    8 ar
    14    7   10 1
    15    8    9 ar
    16    8   33 1
    17    9   34 1
    18   10   15 2
    19   10   11 1
    20   11   12 1
    21   11   13 1
    22   13   14 2
    23   13   22 1
    24   14   15 1
    25   14   16 1
    26   16   21 ar
    27   16   17 ar
    28   17   18 ar
    29   17   35 1
    30   18   19 ar
    31   18   36 1
    32   19   20 ar
    33   19   37 1
    34   20   21 ar
    35   20   38 1
    36   21   43 1
    37   22   27 ar
    38   22   23 ar
    39   23   24 ar
    40   23   39 1
    41   24   25 ar
    42   24   40 1
    43   25   26 ar
    44   26   27 ar
    45   26   41 1
    46   27   42 1
@<TRIPOS>MOLECULE
ZINC04617920
   43    46     0     0     0
SMALL
USER_CHARGES

@<TRIPOS>ATOM
      1 C1         -1.8095    2.2456    2.4704 C.3       1 <0>        -0.4990
      2 S1         -1.5164    2.2313    0.6803 S.o       1 <0>         1.3284
      3 O1         -2.4619    1.3765    0.0523 O.2       1 <0>        -0.8566
      4 C2          0.0139    1.3755    0.5058 C.ar      1 <0>        -0.4665
      5 C3          1.2036    2.0817    0.5205 C.ar      1 <0>        -0.0411
      6 C4          2.4049    1.4184    0.3785 C.ar      1 <0>        -0.1379
      7 C5          2.4183    0.0318    0.2194 C.ar      1 <0>         0.0454
      8 C6          1.2146   -0.6746    0.2055 C.ar      1 <0>        -0.0892
      9 C7          0.0202    0.0009    0.3489 C.ar      1 <0>        -0.0498
     10 C8          3.7019   -0.6855    0.0658 C.2       1 <0>         0.2219
     11 N1          4.9359   -0.1045    0.0582 N.pl3     1 <0>        -0.5612
     12 H1          5.1333    0.8713    0.1520 H         1 <0>         0.4176
     13 C9          5.8592   -1.1140   -0.1030 C.2       1 <0>        -0.0096
     14 C10         5.1362   -2.2926   -0.1984 C.2       1 <0>         0.1504
     15 N2          3.8348   -1.9833   -0.0907 N.2       1 <0>        -0.3936
     16 C11         5.6988   -3.6496   -0.3848 C.ar      1 <0>        -0.0720
     17 C12         6.6598   -3.8806   -1.3674 C.ar      1 <0>        -0.0781
     18 C13         7.1810   -5.1471   -1.5371 C.ar      1 <0>        -0.1886
     19 C14         6.7536   -6.1915   -0.7350 C.ar      1 <0>        -0.0951
     20 C15         5.8018   -5.9765    0.2426 C.ar      1 <0>        -0.1580
     21 C16         5.2720   -4.7071    0.4297 C.ar      1 <0>         0.1575
     22 C17         7.3251   -0.9688   -0.1668 C.ar      1 <0>         0.0504
     23 C18         8.1656   -1.8049    0.5816 C.ar      1 <0>        -0.1351
     24 C19         9.5302   -1.6367    0.4876 C.ar      1 <0>         0.1025
     25 N3         10.0464   -0.6987   -0.2846 N.ar      1 <0>        -0.4905
     26 C20         9.2921    0.1131   -1.0019 C.ar      1 <0>         0.0963
     27 C21         7.9178    0.0131   -0.9732 C.ar      1 <0>        -0.1745
     28 H2         -0.9901    2.7636    2.9687 H         1 <0>         0.1102
     29 H3         -2.7467    2.7608    2.6810 H         1 <0>         0.1040
     30 H4         -1.8680    1.2208    2.8371 H         1 <0>         0.0819
     31 H5          1.1918    3.1547    0.6430 H         1 <0>         0.1382
     32 H6          3.3328    1.9708    0.3902 H         1 <0>         0.1219
     33 H7          1.2181   -1.7476    0.0824 H         1 <0>         0.1452
     34 H8         -0.9119   -0.5445    0.3382 H         1 <0>         0.1294
     35 H9          6.9961   -3.0692   -1.9958 H         1 <0>         0.1001
     36 H10         7.9259   -5.3243   -2.2988 H         1 <0>         0.1053
     37 H11         7.1664   -7.1797   -0.8747 H         1 <0>         0.1054
     38 H12         5.4728   -6.7956    0.8649 H         1 <0>         0.1120
     39 H13         7.7501   -2.5714    1.2190 H         1 <0>         0.1412
     40 H14        10.1863   -2.2781    1.0573 H         1 <0>         0.1575
     41 H15         9.7583    0.8664   -1.6196 H         1 <0>         0.1533
     42 H16         7.3070    0.6805   -1.5629 H         1 <0>         0.1289
     43 S2          4.0631   -4.4282    1.6809 S.3       1 <0>        -0.9084
@<TRIPOS>BOND
     1    1    2 1
     2    1   28 1
     3    1   29 1
     4    1   30 1
     5    2    3 2
     6    2    4 1
     7    4    9 ar
     8    4    5 ar
     9    5    6 ar
    10    5   31 1
    11    6    7 ar
    12    6   32 1
    13    7    8 ar
    14    7   10 1
    15    8    9 ar
    16    8   33 1
    17    9   34 1
    18   10   15 2
    19   10   11 1
    20   11   12 1
    21   11   13 1
    22   13   14 2
    23   13   22 1
    24   14   15 1
    25   14   16 1
    26   16   21 ar
    27   16   17 ar
    28   17   18 ar
    29   17   35 1
    30   18   19 ar
    31   18   36 1
    32   19   20 ar
    33   19   37 1
    34   20   21 ar
    35   20   38 1
    36   21   43 1
    37   22   27 ar
    38   22   23 ar
    39   23   24 ar
    40   23   39 1
    41   24   25 ar
    42   24   40 1
    43   25   26 ar
    44   26   27 ar
    45   26   41 1
    46   27   42 1
@<TRIPOS>MOLECULE
ZINC04617921
   43    46     0     0     0
SMALL
USER_CHARGES

@<TRIPOS>ATOM
      1 C1          9.7872   -1.8083    0.7035 C.3       1 <0>        -0.4977
      2 S1          9.5718   -0.0071    0.7104 S.o       1 <0>         1.3355
      3 O1         10.6918    0.6063    0.0871 O.2       1 <0>        -0.8451
      4 C2          8.2499    0.2685   -0.4216 C.ar      1 <0>        -0.4462
      5 C3          8.5201    0.4747   -1.7621 C.ar      1 <0>        -0.0434
      6 C4          7.4856    0.6918   -2.6533 C.ar      1 <0>        -0.1129
      7 C5          6.1781    0.6979   -2.2078 C.ar      1 <0>        -0.0706
      8 C6          5.9040    0.4964   -0.8619 C.ar      1 <0>         0.0960
      9 C7          6.9452    0.2787    0.0308 C.ar      1 <0>        -0.0368
     10 N1          4.5790    0.5069   -0.4060 N.pl3     1 <0>        -0.4039
     11 C8          3.9874   -0.4351    0.3727 C.2       1 <0>         0.2115
     12 N2          2.7488   -0.0953    0.5993 N.2       1 <0>        -0.4669
     13 C9          2.4798    1.0712   -0.0149 C.2       1 <0>         0.0787
     14 C10         3.6313    1.4733   -0.6682 C.2       1 <0>         0.0228
     15 C11         3.8099    2.6922   -1.4797 C.ar      1 <0>         0.0254
     16 C12         4.9469    3.4978   -1.3294 C.ar      1 <0>        -0.1591
     17 C13         5.0747    4.6252   -2.1119 C.ar      1 <0>         0.1065
     18 N3          4.1407    4.9544   -2.9847 N.ar      1 <0>        -0.4781
     19 C14         3.0523    4.2272   -3.1548 C.ar      1 <0>         0.1061
     20 C15         2.8445    3.0806   -2.4186 C.ar      1 <0>        -0.1468
     21 C16         1.1850    1.7907    0.0004 C.ar      1 <0>        -0.0208
     22 C17        -0.0126    1.0758    0.0080 C.ar      1 <0>        -0.0596
     23 C18        -1.2158    1.7504    0.0173 C.ar      1 <0>        -0.1532
     24 C19        -1.2359    3.1359    0.0293 C.ar      1 <0>         0.1051
     25 C20        -0.0488    3.8506    0.0222 C.ar      1 <0>        -0.1515
     26 C21         1.1595    3.1852    0.0076 C.ar      1 <0>        -0.0720
     27 F1         -2.4167    3.7920    0.0427 F         1 <0>        -0.1374
     28 H1         10.0340   -2.1408   -0.3048 H         1 <0>         0.0832
     29 H2         10.5945   -2.0803    1.3835 H         1 <0>         0.1110
     30 H3          8.8627   -2.2860    1.0275 H         1 <0>         0.1131
     31 H4          9.5413    0.4659   -2.1136 H         1 <0>         0.1362
     32 H5          7.6998    0.8522   -3.6997 H         1 <0>         0.1375
     33 H6          5.3701    0.8630   -2.9051 H         1 <0>         0.1310
     34 H7          6.7348    0.1172    1.0777 H         1 <0>         0.1479
     35 H8          4.4678   -1.3275    0.7459 H         1 <0>         0.2168
     36 H9          5.7128    3.2371   -0.6140 H         1 <0>         0.1315
     37 H10         5.9489    5.2505   -2.0063 H         1 <0>         0.1591
     38 H11         2.3142    4.5352   -3.8805 H         1 <0>         0.1615
     39 H12         1.9517    2.4904   -2.5633 H         1 <0>         0.1394
     40 H13         0.0021   -0.0041    0.0020 H         1 <0>         0.1389
     41 H14        -2.1437    1.1977    0.0187 H         1 <0>         0.1396
     42 H15        -0.0696    4.9304    0.0279 H         1 <0>         0.1384
     43 H16         2.0842    3.7431    0.0014 H         1 <0>         0.1291
@<TRIPOS>BOND
     1    1    2 1
     2    1   28 1
     3    1   29 1
     4    1   30 1
     5    2    3 2
     6    2    4 1
     7    4    9 ar
     8    4    5 ar
     9    5    6 ar
    10    5   31 1
    11    6    7 ar
    12    6   32 1
    13    7    8 ar
    14    7   33 1
    15    8    9 ar
    16    8   10 1
    17    9   34 1
    18   10   14 1
    19   10   11 1
    20   11   12 2
    21   11   35 1
    22   12   13 1
    23   13   14 2
    24   13   21 1
    25   14   15 1
    26   15   20 ar
    27   15   16 ar
    28   16   17 ar
    29   16   36 1
    30   17   18 ar
    31   17   37 1
    32   18   19 ar
    33   19   20 ar
    34   19   38 1
    35   20   39 1
    36   21   26 ar
    37   21   22 ar
    38   22   23 ar
    39   22   40 1
    40   23   24 ar
    41   23   41 1
    42   24   25 ar
    43   24   27 1
    44   25   26 ar
    45   25   42 1
    46   26   43 1
@<TRIPOS>MOLECULE
ZINC04617921
   43    46     0     0     0
SMALL
USER_CHARGES

@<TRIPOS>ATOM
      1 C1          9.7872   -1.8083    0.7035 C.3       1 <0>        -0.4977
      2 S1          9.5718   -0.0071    0.7104 S.o       1 <0>         1.3355
      3 O1         10.6918    0.6063    0.0871 O.2       1 <0>        -0.8451
      4 C2          8.2499    0.2685   -0.4216 C.ar      1 <0>        -0.4462
      5 C3          8.5201    0.4747   -1.7621 C.ar      1 <0>        -0.0434
      6 C4          7.4856    0.6918   -2.6533 C.ar      1 <0>        -0.1129
      7 C5          6.1781    0.6979   -2.2078 C.ar      1 <0>        -0.0706
      8 C6          5.9040    0.4964   -0.8619 C.ar      1 <0>         0.0960
      9 C7          6.9452    0.2787    0.0308 C.ar      1 <0>        -0.0368
     10 N1          4.5790    0.5069   -0.4060 N.pl3     1 <0>        -0.4039
     11 C8          3.9874   -0.4351    0.3727 C.2       1 <0>         0.2115
     12 N2          2.7488   -0.0953    0.5993 N.2       1 <0>        -0.4669
     13 C9          2.4798    1.0712   -0.0149 C.2       1 <0>         0.0787
     14 C10         3.6313    1.4733   -0.6682 C.2       1 <0>         0.0228
     15 C11         3.8099    2.6922   -1.4797 C.ar      1 <0>         0.0254
     16 C12         4.9469    3.4978   -1.3294 C.ar      1 <0>        -0.1591
     17 C13         5.0747    4.6252   -2.1119 C.ar      1 <0>         0.1065
     18 N3          4.1407    4.9544   -2.9847 N.ar      1 <0>        -0.4781
     19 C14         3.0523    4.2272   -3.1548 C.ar      1 <0>         0.1061
     20 C15         2.8445    3.0806   -2.4186 C.ar      1 <0>        -0.1468
     21 C16         1.1850    1.7907    0.0004 C.ar      1 <0>        -0.0208
     22 C17        -0.0126    1.0758    0.0080 C.ar      1 <0>        -0.0596
     23 C18        -1.2158    1.7504    0.0173 C.ar      1 <0>        -0.1532
     24 C19        -1.2359    3.1359    0.0293 C.ar      1 <0>         0.1051
     25 C20        -0.0488    3.8506    0.0222 C.ar      1 <0>        -0.1515
     26 C21         1.1595    3.1852    0.0076 C.ar      1 <0>        -0.0720
     27 F1         -2.4167    3.7920    0.0427 F         1 <0>        -0.1374
     28 H1         10.0340   -2.1408   -0.3048 H         1 <0>         0.0832
     29 H2         10.5945   -2.0803    1.3835 H         1 <0>         0.1110
     30 H3          8.8627   -2.2860    1.0275 H         1 <0>         0.1131
     31 H4          9.5413    0.4659   -2.1136 H         1 <0>         0.1362
     32 H5          7.6998    0.8522   -3.6997 H         1 <0>         0.1375
     33 H6          5.3701    0.8630   -2.9051 H         1 <0>         0.1310
     34 H7          6.7348    0.1172    1.0777 H         1 <0>         0.1479
     35 H8          4.4678   -1.3275    0.7459 H         1 <0>         0.2168
     36 H9          5.7128    3.2371   -0.6140 H         1 <0>         0.1315
     37 H10         5.9489    5.2505   -2.0063 H         1 <0>         0.1591
     38 H11         2.3142    4.5352   -3.8805 H         1 <0>         0.1615
     39 H12         1.9517    2.4904   -2.5633 H         1 <0>         0.1394
     40 H13         0.0021   -0.0041    0.0020 H         1 <0>         0.1389
     41 H14        -2.1437    1.1977    0.0187 H         1 <0>         0.1396
     42 H15        -0.0696    4.9304    0.0279 H         1 <0>         0.1384
     43 H16         2.0842    3.7431    0.0014 H         1 <0>         0.1291
@<TRIPOS>BOND
     1    1    2 1
     2    1   28 1
     3    1   29 1
     4    1   30 1
     5    2    3 2
     6    2    4 1
     7    4    9 ar
     8    4    5 ar
     9    5    6 ar
    10    5   31 1
    11    6    7 ar
    12    6   32 1
    13    7    8 ar
    14    7   33 1
    15    8    9 ar
    16    8   10 1
    17    9   34 1
    18   10   14 1
    19   10   11 1
    20   11   12 2
    21   11   35 1
    22   12   13 1
    23   13   14 2
    24   13   21 1
    25   14   15 1
    26   15   20 ar
    27   15   16 ar
    28   16   17 ar
    29   16   36 1
    30   17   18 ar
    31   17   37 1
    32   18   19 ar
    33   19   20 ar
    34   19   38 1
    35   20   39 1
    36   21   26 ar
    37   21   22 ar
    38   22   23 ar
    39   22   40 1
    40   23   24 ar
    41   23   41 1
    42   24   25 ar
    43   24   27 1
    44   25   26 ar
    45   25   42 1
    46   26   43 1
@<TRIPOS>MOLECULE
ZINC04617922
   43    46     0     0     0
SMALL
USER_CHARGES

@<TRIPOS>ATOM
      1 C1         -5.9967    6.6327   -2.1490 C.3       1 <0>        -0.4875
      2 S1         -6.7938    5.9507   -0.6691 S.o       1 <0>         1.3324
      3 O1         -6.3520    4.6155   -0.4658 O.2       1 <0>        -0.8135
      4 C2         -6.0639    6.8482    0.6600 C.ar      1 <0>        -0.4318
      5 C3         -6.7875    7.8230    1.3158 C.ar      1 <0>        -0.0401
      6 C4         -6.2163    8.5278    2.3601 C.ar      1 <0>        -0.1260
      7 C5         -4.9167    8.2612    2.7538 C.ar      1 <0>        -0.0831
      8 C6         -4.1843    7.2856    2.1102 C.ar      1 <0>        -0.1275
      9 C7         -4.7529    6.5743    1.0522 C.ar      1 <0>         0.0437
     10 C8         -3.9717    5.5312    0.3540 C.2       1 <0>         0.2314
     11 N1         -2.7817    5.0175    0.7790 N.pl3     1 <0>        -0.5488
     12 H1         -2.2873    5.2735    1.6097 H         1 <0>         0.4279
     13 C9         -2.3888    4.0805   -0.1501 C.2       1 <0>         0.0291
     14 C10        -3.3786    4.0525   -1.1191 C.2       1 <0>         0.0824
     15 N2         -4.3161    4.9473   -0.7716 N.2       1 <0>        -0.4049
     16 C11        -3.3981    3.1896   -2.3235 C.ar      1 <0>        -0.0178
     17 C12        -2.2083    2.8811   -2.9824 C.ar      1 <0>        -0.0757
     18 C13        -2.2312    2.0737   -4.1007 C.ar      1 <0>        -0.1535
     19 C14        -3.4347    1.5774   -4.5752 C.ar      1 <0>         0.1029
     20 C15        -4.6201    1.8855   -3.9270 C.ar      1 <0>        -0.1554
     21 C16        -4.6069    2.6881   -2.8051 C.ar      1 <0>        -0.0576
     22 F1         -3.4526    0.7910   -5.6736 F         1 <0>        -0.1385
     23 C17        -1.1609    3.2641   -0.1171 C.ar      1 <0>         0.0264
     24 C18        -1.2006    1.8911   -0.3972 C.ar      1 <0>        -0.1437
     25 C19        -0.0294    1.1659   -0.3498 C.ar      1 <0>         0.1075
     26 N3          1.1179    1.7489   -0.0563 N.ar      1 <0>        -0.4798
     27 C20         1.2012    3.0393    0.2091 C.ar      1 <0>         0.1065
     28 C21         0.0796    3.8402    0.1896 C.ar      1 <0>        -0.1678
     29 H2         -4.9202    6.4732   -2.0881 H         1 <0>         0.0977
     30 H3         -6.3884    6.1335   -3.0353 H         1 <0>         0.0989
     31 H4         -6.2027    7.7011   -2.2129 H         1 <0>         0.0950
     32 H5         -7.8022    8.0359    1.0133 H         1 <0>         0.1434
     33 H6         -6.7869    9.2899    2.8701 H         1 <0>         0.1333
     34 H7         -4.4766    8.8151    3.5699 H         1 <0>         0.1309
     35 H8         -3.1717    7.0753    2.4214 H         1 <0>         0.1182
     36 H9         -1.2702    3.2708   -2.6157 H         1 <0>         0.1276
     37 H10        -1.3099    1.8309   -4.6092 H         1 <0>         0.1372
     38 H11        -5.5558    1.4969   -4.3010 H         1 <0>         0.1384
     39 H12        -5.5314    2.9279   -2.3008 H         1 <0>         0.1472
     40 H13        -2.1349    1.4084   -0.6428 H         1 <0>         0.1400
     41 H14        -0.0501    0.1068   -0.5601 H         1 <0>         0.1623
     42 H15         2.1617    3.4736    0.4443 H         1 <0>         0.1603
     43 H16         0.1554    4.8952    0.4078 H         1 <0>         0.1328
@<TRIPOS>BOND
     1    1    2 1
     2    1   29 1
     3    1   30 1
     4    1   31 1
     5    2    3 2
     6    2    4 1
     7    4    9 ar
     8    4    5 ar
     9    5    6 ar
    10    5   32 1
    11    6    7 ar
    12    6   33 1
    13    7    8 ar
    14    7   34 1
    15    8    9 ar
    16    8   35 1
    17    9   10 1
    18   10   15 2
    19   10   11 1
    20   11   12 1
    21   11   13 1
    22   13   14 2
    23   13   23 1
    24   14   15 1
    25   14   16 1
    26   16   21 ar
    27   16   17 ar
    28   17   18 ar
    29   17   36 1
    30   18   19 ar
    31   18   37 1
    32   19   20 ar
    33   19   22 1
    34   20   21 ar
    35   20   38 1
    36   21   39 1
    37   23   28 ar
    38   23   24 ar
    39   24   25 ar
    40   24   40 1
    41   25   26 ar
    42   25   41 1
    43   26   27 ar
    44   27   28 ar
    45   27   42 1
    46   28   43 1
@<TRIPOS>MOLECULE
ZINC04617922
   43    46     0     0     0
SMALL
USER_CHARGES

@<TRIPOS>ATOM
      1 C1         -5.9967    6.6327   -2.1490 C.3       1 <0>        -0.4875
      2 S1         -6.7938    5.9507   -0.6691 S.o       1 <0>         1.3324
      3 O1         -6.3520    4.6155   -0.4658 O.2       1 <0>        -0.8135
      4 C2         -6.0639    6.8482    0.6600 C.ar      1 <0>        -0.4318
      5 C3         -6.7875    7.8230    1.3158 C.ar      1 <0>        -0.0401
      6 C4         -6.2163    8.5278    2.3601 C.ar      1 <0>        -0.1260
      7 C5         -4.9167    8.2612    2.7538 C.ar      1 <0>        -0.0831
      8 C6         -4.1843    7.2856    2.1102 C.ar      1 <0>        -0.1275
      9 C7         -4.7529    6.5743    1.0522 C.ar      1 <0>         0.0437
     10 C8         -3.9717    5.5312    0.3540 C.2       1 <0>         0.2314
     11 N1         -2.7817    5.0175    0.7790 N.pl3     1 <0>        -0.5488
     12 H1         -2.2873    5.2735    1.6097 H         1 <0>         0.4279
     13 C9         -2.3888    4.0805   -0.1501 C.2       1 <0>         0.0291
     14 C10        -3.3786    4.0525   -1.1191 C.2       1 <0>         0.0824
     15 N2         -4.3161    4.9473   -0.7716 N.2       1 <0>        -0.4049
     16 C11        -3.3981    3.1896   -2.3235 C.ar      1 <0>        -0.0178
     17 C12        -2.2083    2.8811   -2.9824 C.ar      1 <0>        -0.0757
     18 C13        -2.2312    2.0737   -4.1007 C.ar      1 <0>        -0.1535
     19 C14        -3.4347    1.5774   -4.5752 C.ar      1 <0>         0.1029
     20 C15        -4.6201    1.8855   -3.9270 C.ar      1 <0>        -0.1554
     21 C16        -4.6069    2.6881   -2.8051 C.ar      1 <0>        -0.0576
     22 F1         -3.4526    0.7910   -5.6736 F         1 <0>        -0.1385
     23 C17        -1.1609    3.2641   -0.1171 C.ar      1 <0>         0.0264
     24 C18        -1.2006    1.8911   -0.3972 C.ar      1 <0>        -0.1437
     25 C19        -0.0294    1.1659   -0.3498 C.ar      1 <0>         0.1075
     26 N3          1.1179    1.7489   -0.0563 N.ar      1 <0>        -0.4798
     27 C20         1.2012    3.0393    0.2091 C.ar      1 <0>         0.1065
     28 C21         0.0796    3.8402    0.1896 C.ar      1 <0>        -0.1678
     29 H2         -4.9202    6.4732   -2.0881 H         1 <0>         0.0977
     30 H3         -6.3884    6.1335   -3.0353 H         1 <0>         0.0989
     31 H4         -6.2027    7.7011   -2.2129 H         1 <0>         0.0950
     32 H5         -7.8022    8.0359    1.0133 H         1 <0>         0.1434
     33 H6         -6.7869    9.2899    2.8701 H         1 <0>         0.1333
     34 H7         -4.4766    8.8151    3.5699 H         1 <0>         0.1309
     35 H8         -3.1717    7.0753    2.4214 H         1 <0>         0.1182
     36 H9         -1.2702    3.2708   -2.6157 H         1 <0>         0.1276
     37 H10        -1.3099    1.8309   -4.6092 H         1 <0>         0.1372
     38 H11        -5.5558    1.4969   -4.3010 H         1 <0>         0.1384
     39 H12        -5.5314    2.9279   -2.3008 H         1 <0>         0.1472
     40 H13        -2.1349    1.4084   -0.6428 H         1 <0>         0.1400
     41 H14        -0.0501    0.1068   -0.5601 H         1 <0>         0.1623
     42 H15         2.1617    3.4736    0.4443 H         1 <0>         0.1603
     43 H16         0.1554    4.8952    0.4078 H         1 <0>         0.1328
@<TRIPOS>BOND
     1    1    2 1
     2    1   29 1
     3    1   30 1
     4    1   31 1
     5    2    3 2
     6    2    4 1
     7    4    9 ar
     8    4    5 ar
     9    5    6 ar
    10    5   32 1
    11    6    7 ar
    12    6   33 1
    13    7    8 ar
    14    7   34 1
    15    8    9 ar
    16    8   35 1
    17    9   10 1
    18   10   15 2
    19   10   11 1
    20   11   12 1
    21   11   13 1
    22   13   14 2
    23   13   23 1
    24   14   15 1
    25   14   16 1
    26   16   21 ar
    27   16   17 ar
    28   17   18 ar
    29   17   36 1
    30   18   19 ar
    31   18   37 1
    32   19   20 ar
    33   19   22 1
    34   20   21 ar
    35   20   38 1
    36   21   39 1
    37   23   28 ar
    38   23   24 ar
    39   24   25 ar
    40   24   40 1
    41   25   26 ar
    42   25   41 1
    43   26   27 ar
    44   27   28 ar
    45   27   42 1
    46   28   43 1
@<TRIPOS>MOLECULE
ZINC04617923
   45    48     0     0     0
SMALL
USER_CHARGES

@<TRIPOS>ATOM
      1 C1         -8.1924    8.1499    0.8642 C.3       1 <0>        -0.1149
      2 C2         -6.7843    7.8360    1.2996 C.ar      1 <0>        -0.1021
      3 C3         -6.1062    6.7813    0.7279 C.ar      1 <0>        -0.0656
      4 C4         -4.8014    6.4912    1.1321 C.ar      1 <0>        -0.0220
      5 C5         -4.1910    7.2684    2.1188 C.ar      1 <0>        -0.1011
      6 C6         -4.8742    8.3244    2.6821 C.ar      1 <0>        -0.1015
      7 C7         -6.1717    8.6099    2.2770 C.ar      1 <0>         0.1163
      8 O1         -6.8436    9.6484    2.8384 O.3       1 <0>        -0.4907
      9 C8         -4.2146    9.1670    3.7433 C.3       1 <0>        -0.1144
     10 C9         -4.0707    5.3613    0.5217 C.2       1 <0>         0.2729
     11 N1         -2.7995    4.9792    0.8366 N.pl3     1 <0>        -0.5537
     12 H1         -2.2019    5.4064    1.5151 H         1 <0>         0.4303
     13 C10        -2.4934    3.8943    0.0444 C.2       1 <0>         0.0277
     14 C11        -3.6146    3.6481   -0.7306 C.2       1 <0>         0.0810
     15 N2         -4.5438    4.5610   -0.4073 N.2       1 <0>        -0.4570
     16 C12        -3.7621    2.5695   -1.7358 C.ar      1 <0>        -0.0201
     17 C13        -2.6689    2.1794   -2.5088 C.ar      1 <0>        -0.0725
     18 C14        -2.8099    1.1711   -3.4396 C.ar      1 <0>        -0.1513
     19 C15        -4.0378    0.5535   -3.6146 C.ar      1 <0>         0.1047
     20 C16        -5.1284    0.9414   -2.8530 C.ar      1 <0>        -0.1529
     21 C17        -4.9961    1.9451   -1.9159 C.ar      1 <0>        -0.0599
     22 F1         -4.1723   -0.4300   -4.5311 F         1 <0>        -0.1376
     23 C18        -1.2259    3.1408    0.0293 C.ar      1 <0>         0.0252
     24 C19        -1.2207    1.7390    0.0173 C.ar      1 <0>        -0.1446
     25 C20        -0.0126    1.0758    0.0080 C.ar      1 <0>         0.1073
     26 N3          1.1269    1.7422    0.0007 N.ar      1 <0>        -0.4797
     27 C21         1.1679    3.0616    0.0069 C.ar      1 <0>         0.1070
     28 C22         0.0081    3.8061    0.0211 C.ar      1 <0>        -0.1666
     29 H2         -8.8967    7.5972    1.4859 H         1 <0>         0.0726
     30 H3         -8.3757    9.2192    0.9702 H         1 <0>         0.0759
     31 H4         -8.3234    7.8605   -0.1785 H         1 <0>         0.0716
     32 H5         -6.5834    6.1796   -0.0315 H         1 <0>         0.1426
     33 H6         -3.1838    7.0443    2.4375 H         1 <0>         0.1215
     34 H7         -7.3517    9.4086    3.6254 H         1 <0>         0.3918
     35 H8         -4.4207    8.7413    4.7253 H         1 <0>         0.0718
     36 H9         -3.1379    9.1866    3.5745 H         1 <0>         0.0679
     37 H10        -4.6081   10.1824    3.6976 H         1 <0>         0.0772
     38 H11        -1.7125    2.6634   -2.3762 H         1 <0>         0.1293
     39 H12        -1.9628    0.8653   -4.0356 H         1 <0>         0.1384
     40 H13        -6.0837    0.4576   -2.9934 H         1 <0>         0.1396
     41 H14        -5.8467    2.2471   -1.3229 H         1 <0>         0.1387
     42 H15        -2.1491    1.1872    0.0191 H         1 <0>         0.1403
     43 H16         0.0021   -0.0041    0.0020 H         1 <0>         0.1622
     44 H17         2.1235    3.5647    0.0005 H         1 <0>         0.1604
     45 H18         0.0493    4.8853    0.0261 H         1 <0>         0.1339
@<TRIPOS>BOND
     1    1    2 1
     2    1   29 1
     3    1   30 1
     4    1   31 1
     5    2    7 ar
     6    2    3 ar
     7    3    4 ar
     8    3   32 1
     9    4    5 ar
    10    4   10 1
    11    5    6 ar
    12    5   33 1
    13    6    7 ar
    14    6    9 1
    15    7    8 1
    16    8   34 1
    17    9   35 1
    18    9   36 1
    19    9   37 1
    20   10   15 2
    21   10   11 1
    22   11   12 1
    23   11   13 1
    24   13   14 2
    25   13   23 1
    26   14   15 1
    27   14   16 1
    28   16   21 ar
    29   16   17 ar
    30   17   18 ar
    31   17   38 1
    32   18   19 ar
    33   18   39 1
    34   19   20 ar
    35   19   22 1
    36   20   21 ar
    37   20   40 1
    38   21   41 1
    39   23   28 ar
    40   23   24 ar
    41   24   25 ar
    42   24   42 1
    43   25   26 ar
    44   25   43 1
    45   26   27 ar
    46   27   28 ar
    47   27   44 1
    48   28   45 1
@<TRIPOS>MOLECULE
ZINC04617923
   45    48     0     0     0
SMALL
USER_CHARGES

@<TRIPOS>ATOM
      1 C1         -8.1924    8.1499    0.8642 C.3       1 <0>        -0.1149
      2 C2         -6.7843    7.8360    1.2996 C.ar      1 <0>        -0.1021
      3 C3         -6.1062    6.7813    0.7279 C.ar      1 <0>        -0.0656
      4 C4         -4.8014    6.4912    1.1321 C.ar      1 <0>        -0.0220
      5 C5         -4.1910    7.2684    2.1188 C.ar      1 <0>        -0.1011
      6 C6         -4.8742    8.3244    2.6821 C.ar      1 <0>        -0.1015
      7 C7         -6.1717    8.6099    2.2770 C.ar      1 <0>         0.1163
      8 O1         -6.8436    9.6484    2.8384 O.3       1 <0>        -0.4907
      9 C8         -4.2146    9.1670    3.7433 C.3       1 <0>        -0.1144
     10 C9         -4.0707    5.3613    0.5217 C.2       1 <0>         0.2729
     11 N1         -2.7995    4.9792    0.8366 N.pl3     1 <0>        -0.5537
     12 H1         -2.2019    5.4064    1.5151 H         1 <0>         0.4303
     13 C10        -2.4934    3.8943    0.0444 C.2       1 <0>         0.0277
     14 C11        -3.6146    3.6481   -0.7306 C.2       1 <0>         0.0810
     15 N2         -4.5438    4.5610   -0.4073 N.2       1 <0>        -0.4570
     16 C12        -3.7621    2.5695   -1.7358 C.ar      1 <0>        -0.0201
     17 C13        -2.6689    2.1794   -2.5088 C.ar      1 <0>        -0.0725
     18 C14        -2.8099    1.1711   -3.4396 C.ar      1 <0>        -0.1513
     19 C15        -4.0378    0.5535   -3.6146 C.ar      1 <0>         0.1047
     20 C16        -5.1284    0.9414   -2.8530 C.ar      1 <0>        -0.1529
     21 C17        -4.9961    1.9451   -1.9159 C.ar      1 <0>        -0.0599
     22 F1         -4.1723   -0.4300   -4.5311 F         1 <0>        -0.1376
     23 C18        -1.2259    3.1408    0.0293 C.ar      1 <0>         0.0252
     24 C19        -1.2207    1.7390    0.0173 C.ar      1 <0>        -0.1446
     25 C20        -0.0126    1.0758    0.0080 C.ar      1 <0>         0.1073
     26 N3          1.1269    1.7422    0.0007 N.ar      1 <0>        -0.4797
     27 C21         1.1679    3.0616    0.0069 C.ar      1 <0>         0.1070
     28 C22         0.0081    3.8061    0.0211 C.ar      1 <0>        -0.1666
     29 H2         -8.8967    7.5972    1.4859 H         1 <0>         0.0726
     30 H3         -8.3757    9.2192    0.9702 H         1 <0>         0.0759
     31 H4         -8.3234    7.8605   -0.1785 H         1 <0>         0.0716
     32 H5         -6.5834    6.1796   -0.0315 H         1 <0>         0.1426
     33 H6         -3.1838    7.0443    2.4375 H         1 <0>         0.1215
     34 H7         -7.3517    9.4086    3.6254 H         1 <0>         0.3918
     35 H8         -4.4207    8.7413    4.7253 H         1 <0>         0.0718
     36 H9         -3.1379    9.1866    3.5745 H         1 <0>         0.0679
     37 H10        -4.6081   10.1824    3.6976 H         1 <0>         0.0772
     38 H11        -1.7125    2.6634   -2.3762 H         1 <0>         0.1293
     39 H12        -1.9628    0.8653   -4.0356 H         1 <0>         0.1384
     40 H13        -6.0837    0.4576   -2.9934 H         1 <0>         0.1396
     41 H14        -5.8467    2.2471   -1.3229 H         1 <0>         0.1387
     42 H15        -2.1491    1.1872    0.0191 H         1 <0>         0.1403
     43 H16         0.0021   -0.0041    0.0020 H         1 <0>         0.1622
     44 H17         2.1235    3.5647    0.0005 H         1 <0>         0.1604
     45 H18         0.0493    4.8853    0.0261 H         1 <0>         0.1339
@<TRIPOS>BOND
     1    1    2 1
     2    1   29 1
     3    1   30 1
     4    1   31 1
     5    2    7 ar
     6    2    3 ar
     7    3    4 ar
     8    3   32 1
     9    4    5 ar
    10    4   10 1
    11    5    6 ar
    12    5   33 1
    13    6    7 ar
    14    6    9 1
    15    7    8 1
    16    8   34 1
    17    9   35 1
    18    9   36 1
    19    9   37 1
    20   10   15 2
    21   10   11 1
    22   11   12 1
    23   11   13 1
    24   13   14 2
    25   13   23 1
    26   14   15 1
    27   14   16 1
    28   16   21 ar
    29   16   17 ar
    30   17   18 ar
    31   17   38 1
    32   18   19 ar
    33   18   39 1
    34   19   20 ar
    35   19   22 1
    36   20   21 ar
    37   20   40 1
    38   21   41 1
    39   23   28 ar
    40   23   24 ar
    41   24   25 ar
    42   24   42 1
    43   25   26 ar
    44   25   43 1
    45   26   27 ar
    46   27   28 ar
    47   27   44 1
    48   28   45 1
@<TRIPOS>MOLECULE
ZINC04617924
   49    52     0     0     0
SMALL
USER_CHARGES

@<TRIPOS>ATOM
      1 C1         -2.9219   -0.2699   -8.8716 C.ar      1 <0>        -0.0817
      2 C2         -3.7001    0.8677   -8.7665 C.ar      1 <0>        -0.1366
      3 C3         -3.4307    1.8009   -7.7828 C.ar      1 <0>        -0.0429
      4 C4         -2.3833    1.5963   -6.9042 C.ar      1 <0>        -0.4653
      5 C5         -1.6019    0.4611   -7.0127 C.ar      1 <0>        -0.0546
      6 C6         -1.8744   -0.4745   -7.9931 C.ar      1 <0>        -0.1349
      7 S1         -2.0397    2.7859   -5.6507 S.o       1 <0>         1.3338
      8 O1         -0.6627    2.5902   -5.3591 O.2       1 <0>        -0.8429
      9 C7         -3.0402    2.2385   -4.2401 C.3       1 <0>        -0.4602
     10 C8         -2.8332    3.1968   -3.0655 C.3       1 <0>        -0.1144
     11 C9         -3.6770    2.7351   -1.8757 C.3       1 <0>         0.1053
     12 N1         -3.5714    3.7156   -0.7923 N.pl3     1 <0>        -0.4457
     13 C10        -4.4407    4.7146   -0.5305 C.2       1 <0>         0.2024
     14 N2         -4.0270    5.3935    0.5033 N.2       1 <0>        -0.4757
     15 C11        -2.8775    4.8637    0.9597 C.2       1 <0>         0.0721
     16 C12        -2.5684    3.7868    0.1481 C.2       1 <0>         0.0160
     17 C13        -1.3965    2.8976    0.2632 C.ar      1 <0>         0.0303
     18 C14        -1.5526    1.5078    0.3520 C.ar      1 <0>        -0.1681
     19 C15        -0.4302    0.7154    0.4628 C.ar      1 <0>         0.1055
     20 N3          0.7774    1.2482    0.4759 N.ar      1 <0>        -0.4791
     21 C16         0.9699    2.5512    0.3896 C.ar      1 <0>         0.1084
     22 C17        -0.0957    3.4187    0.2811 C.ar      1 <0>        -0.1450
     23 C18        -2.0887    5.3444    2.1180 C.ar      1 <0>        -0.0162
     24 C19        -1.4192    4.4336    2.9349 C.ar      1 <0>        -0.0740
     25 C20        -0.6824    4.8865    4.0096 C.ar      1 <0>        -0.1514
     26 C21        -0.6151    6.2430    4.2841 C.ar      1 <0>         0.1022
     27 C22        -1.2825    7.1515    3.4782 C.ar      1 <0>        -0.1528
     28 C23        -2.0179    6.7088    2.3983 C.ar      1 <0>        -0.0614
     29 F1          0.1031    6.6813    5.3411 F         1 <0>        -0.1384
     30 H1         -3.1321   -0.9988   -9.6404 H         1 <0>         0.1276
     31 H2         -4.5182    1.0277   -9.4531 H         1 <0>         0.1310
     32 H3         -4.0385    2.6899   -7.7009 H         1 <0>         0.1377
     33 H4         -0.7808    0.3035   -6.3291 H         1 <0>         0.1256
     34 H5         -1.2662   -1.3632   -8.0754 H         1 <0>         0.1260
     35 H6         -2.7360    1.2336   -3.9471 H         1 <0>         0.0905
     36 H7         -4.0930    2.2316   -4.5222 H         1 <0>         0.1217
     37 H8         -3.1374    4.2017   -3.3585 H         1 <0>         0.0867
     38 H9         -1.7804    3.2037   -2.7833 H         1 <0>         0.0747
     39 H10        -3.3150    1.7679   -1.5270 H         1 <0>         0.0920
     40 H11        -4.7189    2.6438   -2.1828 H         1 <0>         0.1058
     41 H12        -5.3387    4.9224   -1.0933 H         1 <0>         0.2132
     42 H13        -2.5374    1.0646    0.3378 H         1 <0>         0.1322
     43 H14        -0.5401   -0.3565    0.5355 H         1 <0>         0.1585
     44 H15         1.9762    2.9429    0.4040 H         1 <0>         0.1613
     45 H16         0.0693    4.4838    0.2113 H         1 <0>         0.1388
     46 H17        -1.4744    3.3758    2.7242 H         1 <0>         0.1274
     47 H18        -0.1606    4.1823    4.6406 H         1 <0>         0.1370
     48 H19        -1.2270    8.2078    3.6961 H         1 <0>         0.1390
     49 H20        -2.5382    7.4175    1.7712 H         1 <0>         0.1386
@<TRIPOS>BOND
     1    1    6 ar
     2    1    2 ar
     3    1   30 1
     4    2    3 ar
     5    2   31 1
     6    3    4 ar
     7    3   32 1
     8    4    5 ar
     9    4    7 1
    10    5    6 ar
    11    5   33 1
    12    6   34 1
    13    7    8 2
    14    7    9 1
    15    9   10 1
    16    9   35 1
    17    9   36 1
    18   10   11 1
    19   10   37 1
    20   10   38 1
    21   11   12 1
    22   11   39 1
    23   11   40 1
    24   12   16 1
    25   12   13 1
    26   13   14 2
    27   13   41 1
    28   14   15 1
    29   15   16 2
    30   15   23 1
    31   16   17 1
    32   17   22 ar
    33   17   18 ar
    34   18   19 ar
    35   18   42 1
    36   19   20 ar
    37   19   43 1
    38   20   21 ar
    39   21   22 ar
    40   21   44 1
    41   22   45 1
    42   23   28 ar
    43   23   24 ar
    44   24   25 ar
    45   24   46 1
    46   25   26 ar
    47   25   47 1
    48   26   27 ar
    49   26   29 1
    50   27   28 ar
    51   27   48 1
    52   28   49 1
@<TRIPOS>MOLECULE
ZINC04617924
   49    52     0     0     0
SMALL
USER_CHARGES

@<TRIPOS>ATOM
      1 C1         -2.9219   -0.2699   -8.8716 C.ar      1 <0>        -0.0817
      2 C2         -3.7001    0.8677   -8.7665 C.ar      1 <0>        -0.1366
      3 C3         -3.4307    1.8009   -7.7828 C.ar      1 <0>        -0.0429
      4 C4         -2.3833    1.5963   -6.9042 C.ar      1 <0>        -0.4653
      5 C5         -1.6019    0.4611   -7.0127 C.ar      1 <0>        -0.0546
      6 C6         -1.8744   -0.4745   -7.9931 C.ar      1 <0>        -0.1349
      7 S1         -2.0397    2.7859   -5.6507 S.o       1 <0>         1.3338
      8 O1         -0.6627    2.5902   -5.3591 O.2       1 <0>        -0.8429
      9 C7         -3.0402    2.2385   -4.2401 C.3       1 <0>        -0.4602
     10 C8         -2.8332    3.1968   -3.0655 C.3       1 <0>        -0.1144
     11 C9         -3.6770    2.7351   -1.8757 C.3       1 <0>         0.1053
     12 N1         -3.5714    3.7156   -0.7923 N.pl3     1 <0>        -0.4457
     13 C10        -4.4407    4.7146   -0.5305 C.2       1 <0>         0.2024
     14 N2         -4.0270    5.3935    0.5033 N.2       1 <0>        -0.4757
     15 C11        -2.8775    4.8637    0.9597 C.2       1 <0>         0.0721
     16 C12        -2.5684    3.7868    0.1481 C.2       1 <0>         0.0160
     17 C13        -1.3965    2.8976    0.2632 C.ar      1 <0>         0.0303
     18 C14        -1.5526    1.5078    0.3520 C.ar      1 <0>        -0.1681
     19 C15        -0.4302    0.7154    0.4628 C.ar      1 <0>         0.1055
     20 N3          0.7774    1.2482    0.4759 N.ar      1 <0>        -0.4791
     21 C16         0.9699    2.5512    0.3896 C.ar      1 <0>         0.1084
     22 C17        -0.0957    3.4187    0.2811 C.ar      1 <0>        -0.1450
     23 C18        -2.0887    5.3444    2.1180 C.ar      1 <0>        -0.0162
     24 C19        -1.4192    4.4336    2.9349 C.ar      1 <0>        -0.0740
     25 C20        -0.6824    4.8865    4.0096 C.ar      1 <0>        -0.1514
     26 C21        -0.6151    6.2430    4.2841 C.ar      1 <0>         0.1022
     27 C22        -1.2825    7.1515    3.4782 C.ar      1 <0>        -0.1528
     28 C23        -2.0179    6.7088    2.3983 C.ar      1 <0>        -0.0614
     29 F1          0.1031    6.6813    5.3411 F         1 <0>        -0.1384
     30 H1         -3.1321   -0.9988   -9.6404 H         1 <0>         0.1276
     31 H2         -4.5182    1.0277   -9.4531 H         1 <0>         0.1310
     32 H3         -4.0385    2.6899   -7.7009 H         1 <0>         0.1377
     33 H4         -0.7808    0.3035   -6.3291 H         1 <0>         0.1256
     34 H5         -1.2662   -1.3632   -8.0754 H         1 <0>         0.1260
     35 H6         -2.7360    1.2336   -3.9471 H         1 <0>         0.0905
     36 H7         -4.0930    2.2316   -4.5222 H         1 <0>         0.1217
     37 H8         -3.1374    4.2017   -3.3585 H         1 <0>         0.0867
     38 H9         -1.7804    3.2037   -2.7833 H         1 <0>         0.0747
     39 H10        -3.3150    1.7679   -1.5270 H         1 <0>         0.0920
     40 H11        -4.7189    2.6438   -2.1828 H         1 <0>         0.1058
     41 H12        -5.3387    4.9224   -1.0933 H         1 <0>         0.2132
     42 H13        -2.5374    1.0646    0.3378 H         1 <0>         0.1322
     43 H14        -0.5401   -0.3565    0.5355 H         1 <0>         0.1585
     44 H15         1.9762    2.9429    0.4040 H         1 <0>         0.1613
     45 H16         0.0693    4.4838    0.2113 H         1 <0>         0.1388
     46 H17        -1.4744    3.3758    2.7242 H         1 <0>         0.1274
     47 H18        -0.1606    4.1823    4.6406 H         1 <0>         0.1370
     48 H19        -1.2270    8.2078    3.6961 H         1 <0>         0.1390
     49 H20        -2.5382    7.4175    1.7712 H         1 <0>         0.1386
@<TRIPOS>BOND
     1    1    6 ar
     2    1    2 ar
     3    1   30 1
     4    2    3 ar
     5    2   31 1
     6    3    4 ar
     7    3   32 1
     8    4    5 ar
     9    4    7 1
    10    5    6 ar
    11    5   33 1
    12    6   34 1
    13    7    8 2
    14    7    9 1
    15    9   10 1
    16    9   35 1
    17    9   36 1
    18   10   11 1
    19   10   37 1
    20   10   38 1
    21   11   12 1
    22   11   39 1
    23   11   40 1
    24   12   16 1
    25   12   13 1
    26   13   14 2
    27   13   41 1
    28   14   15 1
    29   15   16 2
    30   15   23 1
    31   16   17 1
    32   17   22 ar
    33   17   18 ar
    34   18   19 ar
    35   18   42 1
    36   19   20 ar
    37   19   43 1
    38   20   21 ar
    39   21   22 ar
    40   21   44 1
    41   22   45 1
    42   23   28 ar
    43   23   24 ar
    44   24   25 ar
    45   24   46 1
    46   25   26 ar
    47   25   47 1
    48   26   27 ar
    49   26   29 1
    50   27   28 ar
    51   27   48 1
    52   28   49 1
@<TRIPOS>MOLECULE
ZINC04617925
   46    49     0     0     0
SMALL
USER_CHARGES

@<TRIPOS>ATOM
      1 C1         -4.0471    2.9645   -0.3850 C.3       1 <0>         0.0560
      2 N1         -3.7415    1.5495   -0.1595 N.pl3     1 <0>        -0.4375
      3 C2         -4.6496    0.5496    0.1071 C.2       1 <0>         0.0268
      4 C3         -3.9151   -0.6160    0.2532 C.2       1 <0>         0.0787
      5 N2         -2.6215   -0.3093    0.0721 N.2       1 <0>        -0.4526
      6 C4         -2.5044    0.9753   -0.1776 C.2       1 <0>         0.2532
      7 C5         -1.2333    1.6865   -0.4315 C.ar      1 <0>         0.0188
      8 C6         -0.0462    1.2258    0.1399 C.ar      1 <0>        -0.0896
      9 C7          1.1374    1.8907   -0.1057 C.ar      1 <0>        -0.0512
     10 C8          1.1484    3.0151   -0.9118 C.ar      1 <0>        -0.4526
     11 C9         -0.0258    3.4803   -1.4767 C.ar      1 <0>        -0.0389
     12 C10        -1.2163    2.8250   -1.2388 C.ar      1 <0>        -0.1305
     13 S1          2.6644    3.8587   -1.2199 S.o       1 <0>         1.3311
     14 O1          3.4772    3.5237   -0.1035 O.2       1 <0>        -0.8505
     15 C11         3.3196    3.0543   -2.7080 C.3       1 <0>        -0.4975
     16 C12        -4.4604   -1.9602    0.5558 C.ar      1 <0>        -0.0196
     17 C13        -5.5633   -2.0942    1.3986 C.ar      1 <0>        -0.0723
     18 C14        -6.0702   -3.3473    1.6736 C.ar      1 <0>        -0.1510
     19 C15        -5.4789   -4.4726    1.1222 C.ar      1 <0>         0.1049
     20 C16        -4.3796   -4.3450    0.2883 C.ar      1 <0>        -0.1526
     21 C17        -3.8687   -3.0957    0.0032 C.ar      1 <0>        -0.0602
     22 F1         -5.9754   -5.6982    1.3988 F         1 <0>        -0.1373
     23 C18        -6.1132    0.6920    0.2203 C.ar      1 <0>         0.0286
     24 C19        -6.6804    1.7449    0.9516 C.ar      1 <0>        -0.1706
     25 C20        -8.0533    1.8416    1.0272 C.ar      1 <0>         0.1083
     26 N3         -8.8295    0.9556    0.4315 N.ar      1 <0>        -0.4794
     27 C21        -8.3375   -0.0533   -0.2630 C.ar      1 <0>         0.1089
     28 C22        -6.9763   -0.2249   -0.3955 C.ar      1 <0>        -0.1449
     29 H1         -4.1273    3.1528   -1.4556 H         1 <0>         0.0869
     30 H2         -4.9910    3.2140    0.0996 H         1 <0>         0.0952
     31 H3         -3.2502    3.5794    0.0334 H         1 <0>         0.0982
     32 H4         -0.0534    0.3482    0.7694 H         1 <0>         0.1373
     33 H5          2.0574    1.5329    0.3325 H         1 <0>         0.1338
     34 H6         -0.0105    4.3586   -2.1051 H         1 <0>         0.1447
     35 H7         -2.1322    3.1892   -1.6803 H         1 <0>         0.1312
     36 H8          2.6102    3.1722   -3.5270 H         1 <0>         0.1121
     37 H9          4.2695    3.5138   -2.9810 H         1 <0>         0.1087
     38 H10         3.4729    1.9934   -2.5099 H         1 <0>         0.0823
     39 H11        -6.0221   -1.2180    1.8324 H         1 <0>         0.1291
     40 H12        -6.9269   -3.4518    2.3229 H         1 <0>         0.1387
     41 H13        -3.9218   -5.2250   -0.1388 H         1 <0>         0.1396
     42 H14        -3.0116   -2.9972   -0.6465 H         1 <0>         0.1381
     43 H15        -6.0515    2.4710    1.4451 H         1 <0>         0.1345
     44 H16        -8.5001    2.6511    1.5854 H         1 <0>         0.1608
     45 H17        -9.0108   -0.7544   -0.7337 H         1 <0>         0.1624
     46 H18        -6.5808   -1.0528   -0.9652 H         1 <0>         0.1400
@<TRIPOS>BOND
     1    1    2 1
     2    1   29 1
     3    1   30 1
     4    1   31 1
     5    2    6 1
     6    2    3 1
     7    3    4 2
     8    3   23 1
     9    4    5 1
    10    4   16 1
    11    5    6 2
    12    6    7 1
    13    7   12 ar
    14    7    8 ar
    15    8    9 ar
    16    8   32 1
    17    9   10 ar
    18    9   33 1
    19   10   11 ar
    20   10   13 1
    21   11   12 ar
    22   11   34 1
    23   12   35 1
    24   13   14 2
    25   13   15 1
    26   15   36 1
    27   15   37 1
    28   15   38 1
    29   16   21 ar
    30   16   17 ar
    31   17   18 ar
    32   17   39 1
    33   18   19 ar
    34   18   40 1
    35   19   20 ar
    36   19   22 1
    37   20   21 ar
    38   20   41 1
    39   21   42 1
    40   23   28 ar
    41   23   24 ar
    42   24   25 ar
    43   24   43 1
    44   25   26 ar
    45   25   44 1
    46   26   27 ar
    47   27   28 ar
    48   27   45 1
    49   28   46 1
@<TRIPOS>MOLECULE
ZINC04617925
   46    49     0     0     0
SMALL
USER_CHARGES

@<TRIPOS>ATOM
      1 C1         -4.0471    2.9645   -0.3850 C.3       1 <0>         0.0560
      2 N1         -3.7415    1.5495   -0.1595 N.pl3     1 <0>        -0.4375
      3 C2         -4.6496    0.5496    0.1071 C.2       1 <0>         0.0268
      4 C3         -3.9151   -0.6160    0.2532 C.2       1 <0>         0.0787
      5 N2         -2.6215   -0.3093    0.0721 N.2       1 <0>        -0.4526
      6 C4         -2.5044    0.9753   -0.1776 C.2       1 <0>         0.2532
      7 C5         -1.2333    1.6865   -0.4315 C.ar      1 <0>         0.0188
      8 C6         -0.0462    1.2258    0.1399 C.ar      1 <0>        -0.0896
      9 C7          1.1374    1.8907   -0.1057 C.ar      1 <0>        -0.0512
     10 C8          1.1484    3.0151   -0.9118 C.ar      1 <0>        -0.4526
     11 C9         -0.0258    3.4803   -1.4767 C.ar      1 <0>        -0.0389
     12 C10        -1.2163    2.8250   -1.2388 C.ar      1 <0>        -0.1305
     13 S1          2.6644    3.8587   -1.2199 S.o       1 <0>         1.3311
     14 O1          3.4772    3.5237   -0.1035 O.2       1 <0>        -0.8505
     15 C11         3.3196    3.0543   -2.7080 C.3       1 <0>        -0.4975
     16 C12        -4.4604   -1.9602    0.5558 C.ar      1 <0>        -0.0196
     17 C13        -5.5633   -2.0942    1.3986 C.ar      1 <0>        -0.0723
     18 C14        -6.0702   -3.3473    1.6736 C.ar      1 <0>        -0.1510
     19 C15        -5.4789   -4.4726    1.1222 C.ar      1 <0>         0.1049
     20 C16        -4.3796   -4.3450    0.2883 C.ar      1 <0>        -0.1526
     21 C17        -3.8687   -3.0957    0.0032 C.ar      1 <0>        -0.0602
     22 F1         -5.9754   -5.6982    1.3988 F         1 <0>        -0.1373
     23 C18        -6.1132    0.6920    0.2203 C.ar      1 <0>         0.0286
     24 C19        -6.6804    1.7449    0.9516 C.ar      1 <0>        -0.1706
     25 C20        -8.0533    1.8416    1.0272 C.ar      1 <0>         0.1083
     26 N3         -8.8295    0.9556    0.4315 N.ar      1 <0>        -0.4794
     27 C21        -8.3375   -0.0533   -0.2630 C.ar      1 <0>         0.1089
     28 C22        -6.9763   -0.2249   -0.3955 C.ar      1 <0>        -0.1449
     29 H1         -4.1273    3.1528   -1.4556 H         1 <0>         0.0869
     30 H2         -4.9910    3.2140    0.0996 H         1 <0>         0.0952
     31 H3         -3.2502    3.5794    0.0334 H         1 <0>         0.0982
     32 H4         -0.0534    0.3482    0.7694 H         1 <0>         0.1373
     33 H5          2.0574    1.5329    0.3325 H         1 <0>         0.1338
     34 H6         -0.0105    4.3586   -2.1051 H         1 <0>         0.1447
     35 H7         -2.1322    3.1892   -1.6803 H         1 <0>         0.1312
     36 H8          2.6102    3.1722   -3.5270 H         1 <0>         0.1121
     37 H9          4.2695    3.5138   -2.9810 H         1 <0>         0.1087
     38 H10         3.4729    1.9934   -2.5099 H         1 <0>         0.0823
     39 H11        -6.0221   -1.2180    1.8324 H         1 <0>         0.1291
     40 H12        -6.9269   -3.4518    2.3229 H         1 <0>         0.1387
     41 H13        -3.9218   -5.2250   -0.1388 H         1 <0>         0.1396
     42 H14        -3.0116   -2.9972   -0.6465 H         1 <0>         0.1381
     43 H15        -6.0515    2.4710    1.4451 H         1 <0>         0.1345
     44 H16        -8.5001    2.6511    1.5854 H         1 <0>         0.1608
     45 H17        -9.0108   -0.7544   -0.7337 H         1 <0>         0.1624
     46 H18        -6.5808   -1.0528   -0.9652 H         1 <0>         0.1400
@<TRIPOS>BOND
     1    1    2 1
     2    1   29 1
     3    1   30 1
     4    1   31 1
     5    2    6 1
     6    2    3 1
     7    3    4 2
     8    3   23 1
     9    4    5 1
    10    4   16 1
    11    5    6 2
    12    6    7 1
    13    7   12 ar
    14    7    8 ar
    15    8    9 ar
    16    8   32 1
    17    9   10 ar
    18    9   33 1
    19   10   11 ar
    20   10   13 1
    21   11   12 ar
    22   11   34 1
    23   12   35 1
    24   13   14 2
    25   13   15 1
    26   15   36 1
    27   15   37 1
    28   15   38 1
    29   16   21 ar
    30   16   17 ar
    31   17   18 ar
    32   17   39 1
    33   18   19 ar
    34   18   40 1
    35   19   20 ar
    36   19   22 1
    37   20   21 ar
    38   20   41 1
    39   21   42 1
    40   23   28 ar
    41   23   24 ar
    42   24   25 ar
    43   24   43 1
    44   25   26 ar
    45   25   44 1
    46   26   27 ar
    47   27   28 ar
    48   27   45 1
    49   28   46 1
@<TRIPOS>MOLECULE
ZINC04617926
   37    40     0     0     0
SMALL
USER_CHARGES

@<TRIPOS>ATOM
      1 C1         -3.5117    3.7722    0.0399 C.ar      1 <0>        -0.1039
      2 C2         -2.2631    4.3683    0.0370 C.ar      1 <0>        -0.1167
      3 C3         -1.1239    3.5902    0.0271 C.ar      1 <0>        -0.0713
      4 C4         -1.2330    2.1988    0.0201 C.ar      1 <0>        -0.0261
      5 C5         -2.4956    1.6039    0.0173 C.ar      1 <0>        -0.1074
      6 C6         -3.6268    2.3935    0.0335 C.ar      1 <0>        -0.1163
      7 C7         -0.0164    1.3587    0.0095 C.2       1 <0>         0.2866
      8 N1          0.0021   -0.0041    0.0020 N.pl3     1 <0>        -0.5518
      9 H1         -0.7944   -0.6088    0.0063 H         1 <0>         0.4306
     10 C8          1.3241   -0.3924   -0.0127 C.2       1 <0>         0.0099
     11 C9          2.0732    0.7741   -0.0136 C.2       1 <0>         0.1212
     12 N2          1.2188    1.8077    0.0001 N.2       1 <0>        -0.4629
     13 C10         3.5522    0.8629   -0.0272 C.ar      1 <0>        -0.0178
     14 C11         4.3160   -0.0821    0.6572 C.ar      1 <0>        -0.0375
     15 C12         5.6928    0.0017    0.6371 C.ar      1 <0>        -0.1576
     16 C13         6.3166    1.0288   -0.0528 C.ar      1 <0>         0.1070
     17 C14         5.5618    1.9734   -0.7296 C.ar      1 <0>        -0.1583
     18 C15         4.1846    1.8950   -0.7198 C.ar      1 <0>        -0.0566
     19 F1          7.6652    1.1098   -0.0653 F         1 <0>        -0.1395
     20 C16         1.8390   -1.7726   -0.0254 C.ar      1 <0>         0.2510
     21 C17         1.0685   -2.8264    0.4864 C.ar      1 <0>        -0.2279
     22 C18         1.5984   -4.1014    0.4504 C.ar      1 <0>         0.1603
     23 N3          2.8070   -4.2860   -0.0622 N.ar      1 <0>        -0.5212
     24 C19         3.5083   -3.2752   -0.5362 C.ar      1 <0>         0.3078
     25 N4          3.0453   -2.0431   -0.5296 N.ar      1 <0>        -0.4969
     26 H2         -4.4004    4.3859    0.0477 H         1 <0>         0.1284
     27 H3         -2.1801    5.4451    0.0421 H         1 <0>         0.1321
     28 H4         -0.1499    4.0568    0.0252 H         1 <0>         0.1398
     29 H5         -2.5868    0.5278    0.0074 H         1 <0>         0.1180
     30 H6         -4.6044    1.9344    0.0362 H         1 <0>         0.1296
     31 H7          3.8306   -0.8806    1.1986 H         1 <0>         0.1203
     32 H8          6.2853   -0.7322    1.1631 H         1 <0>         0.1350
     33 H9          6.0525    2.7726   -1.2653 H         1 <0>         0.1377
     34 H10         3.5971    2.6319   -1.2472 H         1 <0>         0.1366
     35 H11         0.0864   -2.6459    0.8977 H         1 <0>         0.1428
     36 H12         1.0345   -4.9383    0.8350 H         1 <0>         0.1728
     37 H13         4.4892   -3.4644   -0.9464 H         1 <0>         0.2027
@<TRIPOS>BOND
     1    1    6 ar
     2    1    2 ar
     3    1   26 1
     4    2    3 ar
     5    2   27 1
     6    3    4 ar
     7    3   28 1
     8    4    5 ar
     9    4    7 1
    10    5    6 ar
    11    5   29 1
    12    6   30 1
    13    7   12 2
    14    7    8 1
    15    8    9 1
    16    8   10 1
    17   10   11 2
    18   10   20 1
    19   11   12 1
    20   11   13 1
    21   13   18 ar
    22   13   14 ar
    23   14   15 ar
    24   14   31 1
    25   15   16 ar
    26   15   32 1
    27   16   17 ar
    28   16   19 1
    29   17   18 ar
    30   17   33 1
    31   18   34 1
    32   20   25 ar
    33   20   21 ar
    34   21   22 ar
    35   21   35 1
    36   22   23 ar
    37   22   36 1
    38   23   24 ar
    39   24   25 ar
    40   24   37 1
@<TRIPOS>MOLECULE
ZINC04617926
   37    40     0     0     0
SMALL
USER_CHARGES

@<TRIPOS>ATOM
      1 C1         -3.5117    3.7722    0.0399 C.ar      1 <0>        -0.1039
      2 C2         -2.2631    4.3683    0.0370 C.ar      1 <0>        -0.1167
      3 C3         -1.1239    3.5902    0.0271 C.ar      1 <0>        -0.0713
      4 C4         -1.2330    2.1988    0.0201 C.ar      1 <0>        -0.0261
      5 C5         -2.4956    1.6039    0.0173 C.ar      1 <0>        -0.1074
      6 C6         -3.6268    2.3935    0.0335 C.ar      1 <0>        -0.1163
      7 C7         -0.0164    1.3587    0.0095 C.2       1 <0>         0.2866
      8 N1          0.0021   -0.0041    0.0020 N.pl3     1 <0>        -0.5518
      9 H1         -0.7944   -0.6088    0.0063 H         1 <0>         0.4306
     10 C8          1.3241   -0.3924   -0.0127 C.2       1 <0>         0.0099
     11 C9          2.0732    0.7741   -0.0136 C.2       1 <0>         0.1212
     12 N2          1.2188    1.8077    0.0001 N.2       1 <0>        -0.4629
     13 C10         3.5522    0.8629   -0.0272 C.ar      1 <0>        -0.0178
     14 C11         4.3160   -0.0821    0.6572 C.ar      1 <0>        -0.0375
     15 C12         5.6928    0.0017    0.6371 C.ar      1 <0>        -0.1576
     16 C13         6.3166    1.0288   -0.0528 C.ar      1 <0>         0.1070
     17 C14         5.5618    1.9734   -0.7296 C.ar      1 <0>        -0.1583
     18 C15         4.1846    1.8950   -0.7198 C.ar      1 <0>        -0.0566
     19 F1          7.6652    1.1098   -0.0653 F         1 <0>        -0.1395
     20 C16         1.8390   -1.7726   -0.0254 C.ar      1 <0>         0.2510
     21 C17         1.0685   -2.8264    0.4864 C.ar      1 <0>        -0.2279
     22 C18         1.5984   -4.1014    0.4504 C.ar      1 <0>         0.1603
     23 N3          2.8070   -4.2860   -0.0622 N.ar      1 <0>        -0.5212
     24 C19         3.5083   -3.2752   -0.5362 C.ar      1 <0>         0.3078
     25 N4          3.0453   -2.0431   -0.5296 N.ar      1 <0>        -0.4969
     26 H2         -4.4004    4.3859    0.0477 H         1 <0>         0.1284
     27 H3         -2.1801    5.4451    0.0421 H         1 <0>         0.1321
     28 H4         -0.1499    4.0568    0.0252 H         1 <0>         0.1398
     29 H5         -2.5868    0.5278    0.0074 H         1 <0>         0.1180
     30 H6         -4.6044    1.9344    0.0362 H         1 <0>         0.1296
     31 H7          3.8306   -0.8806    1.1986 H         1 <0>         0.1203
     32 H8          6.2853   -0.7322    1.1631 H         1 <0>         0.1350
     33 H9          6.0525    2.7726   -1.2653 H         1 <0>         0.1377
     34 H10         3.5971    2.6319   -1.2472 H         1 <0>         0.1366
     35 H11         0.0864   -2.6459    0.8977 H         1 <0>         0.1428
     36 H12         1.0345   -4.9383    0.8350 H         1 <0>         0.1728
     37 H13         4.4892   -3.4644   -0.9464 H         1 <0>         0.2027
@<TRIPOS>BOND
     1    1    6 ar
     2    1    2 ar
     3    1   26 1
     4    2    3 ar
     5    2   27 1
     6    3    4 ar
     7    3   28 1
     8    4    5 ar
     9    4    7 1
    10    5    6 ar
    11    5   29 1
    12    6   30 1
    13    7   12 2
    14    7    8 1
    15    8    9 1
    16    8   10 1
    17   10   11 2
    18   10   20 1
    19   11   12 1
    20   11   13 1
    21   13   18 ar
    22   13   14 ar
    23   14   15 ar
    24   14   31 1
    25   15   16 ar
    26   15   32 1
    27   16   17 ar
    28   16   19 1
    29   17   18 ar
    30   17   33 1
    31   18   34 1
    32   20   25 ar
    33   20   21 ar
    34   21   22 ar
    35   21   35 1
    36   22   23 ar
    37   22   36 1
    38   23   24 ar
    39   24   25 ar
    40   24   37 1
@<TRIPOS>MOLECULE
ZINC04617927
   43    46     0     0     0
SMALL
USER_CHARGES

@<TRIPOS>ATOM
      1 C1         -3.4681    0.4119    1.2950 C.3       1 <0>        -0.5014
      2 S1         -3.0169    0.8460   -0.4075 S.o       1 <0>         1.3228
      3 O1         -3.8595    1.8933   -0.8685 O.2       1 <0>        -0.8225
      4 C2         -1.4367    1.6091   -0.2484 C.ar      1 <0>        -0.4515
      5 C3         -0.2880    0.8689   -0.4502 C.ar      1 <0>        -0.0326
      6 C4          0.9523    1.4667   -0.3246 C.ar      1 <0>        -0.1182
      7 C5          1.0471    2.8071    0.0028 C.ar      1 <0>        -0.0733
      8 C6         -0.0976    3.5512    0.2105 C.ar      1 <0>        -0.1184
      9 C7         -1.3449    2.9547    0.0804 C.ar      1 <0>         0.1663
     10 N1         -2.5083    3.7083    0.2858 N.pl3     1 <0>        -0.4084
     11 C8         -3.3036    3.6786    1.3859 C.2       1 <0>         0.1932
     12 N2         -4.2939    4.5125    1.2278 N.2       1 <0>        -0.4584
     13 C9         -4.1947    5.1107    0.0268 C.2       1 <0>         0.0692
     14 C10        -3.0624    4.6137   -0.5939 C.2       1 <0>         0.0687
     15 C11        -2.5513    4.9787   -1.9288 C.ar      1 <0>         0.0311
     16 C12        -1.2414    5.4486   -2.0951 C.ar      1 <0>        -0.1657
     17 C13        -0.8042    5.7735   -3.3612 C.ar      1 <0>         0.1022
     18 N3         -1.6033    5.6566   -4.4054 N.ar      1 <0>        -0.4787
     19 C14        -2.8450    5.2232   -4.2931 C.ar      1 <0>         0.1027
     20 C15        -3.3638    4.8708   -3.0657 C.ar      1 <0>        -0.1326
     21 C16        -5.1278    6.1178   -0.5297 C.ar      1 <0>        -0.0100
     22 C17        -4.6436    7.1553   -1.3262 C.ar      1 <0>        -0.0771
     23 C18        -5.5171    8.0879   -1.8460 C.ar      1 <0>        -0.1502
     24 C19        -6.8721    8.0013   -1.5692 C.ar      1 <0>         0.1000
     25 C20        -7.3572    6.9754   -0.7741 C.ar      1 <0>        -0.1519
     26 C21        -6.4925    6.0349   -0.2540 C.ar      1 <0>        -0.0612
     27 F1         -7.7229    8.9203   -2.0760 F         1 <0>        -0.1388
     28 H1         -3.6098    1.3227    1.8768 H         1 <0>         0.0831
     29 H2         -4.3937   -0.1638    1.2900 H         1 <0>         0.1128
     30 H3         -2.6719   -0.1841    1.7411 H         1 <0>         0.1114
     31 H4         -0.3588   -0.1780   -0.7061 H         1 <0>         0.1480
     32 H5          1.8490    0.8858   -0.4822 H         1 <0>         0.1392
     33 H6          2.0173    3.2712    0.1006 H         1 <0>         0.1383
     34 H7         -0.0229    4.5968    0.4703 H         1 <0>         0.1312
     35 H8         -3.1402    3.0621    2.2574 H         1 <0>         0.2045
     36 H9         -0.5835    5.5510   -1.2447 H         1 <0>         0.1292
     37 H10         0.2046    6.1329   -3.5003 H         1 <0>         0.1579
     38 H11        -3.4632    5.1440   -5.1751 H         1 <0>         0.1608
     39 H12        -4.3806    4.5166   -2.9814 H         1 <0>         0.1393
     40 H13        -3.5872    7.2260   -1.5392 H         1 <0>         0.1265
     41 H14        -5.1438    8.8891   -2.4666 H         1 <0>         0.1371
     42 H15        -8.4141    6.9123   -0.5608 H         1 <0>         0.1385
     43 H16        -6.8715    5.2359    0.3660 H         1 <0>         0.1371
@<TRIPOS>BOND
     1    1    2 1
     2    1   28 1
     3    1   29 1
     4    1   30 1
     5    2    3 2
     6    2    4 1
     7    4    9 ar
     8    4    5 ar
     9    5    6 ar
    10    5   31 1
    11    6    7 ar
    12    6   32 1
    13    7    8 ar
    14    7   33 1
    15    8    9 ar
    16    8   34 1
    17    9   10 1
    18   10   14 1
    19   10   11 1
    20   11   12 2
    21   11   35 1
    22   12   13 1
    23   13   14 2
    24   13   21 1
    25   14   15 1
    26   15   20 ar
    27   15   16 ar
    28   16   17 ar
    29   16   36 1
    30   17   18 ar
    31   17   37 1
    32   18   19 ar
    33   19   20 ar
    34   19   38 1
    35   20   39 1
    36   21   26 ar
    37   21   22 ar
    38   22   23 ar
    39   22   40 1
    40   23   24 ar
    41   23   41 1
    42   24   25 ar
    43   24   27 1
    44   25   26 ar
    45   25   42 1
    46   26   43 1
@<TRIPOS>MOLECULE
ZINC04617927
   43    46     0     0     0
SMALL
USER_CHARGES

@<TRIPOS>ATOM
      1 C1         -3.4681    0.4119    1.2950 C.3       1 <0>        -0.5014
      2 S1         -3.0169    0.8460   -0.4075 S.o       1 <0>         1.3228
      3 O1         -3.8595    1.8933   -0.8685 O.2       1 <0>        -0.8225
      4 C2         -1.4367    1.6091   -0.2484 C.ar      1 <0>        -0.4515
      5 C3         -0.2880    0.8689   -0.4502 C.ar      1 <0>        -0.0326
      6 C4          0.9523    1.4667   -0.3246 C.ar      1 <0>        -0.1182
      7 C5          1.0471    2.8071    0.0028 C.ar      1 <0>        -0.0733
      8 C6         -0.0976    3.5512    0.2105 C.ar      1 <0>        -0.1184
      9 C7         -1.3449    2.9547    0.0804 C.ar      1 <0>         0.1663
     10 N1         -2.5083    3.7083    0.2858 N.pl3     1 <0>        -0.4084
     11 C8         -3.3036    3.6786    1.3859 C.2       1 <0>         0.1932
     12 N2         -4.2939    4.5125    1.2278 N.2       1 <0>        -0.4584
     13 C9         -4.1947    5.1107    0.0268 C.2       1 <0>         0.0692
     14 C10        -3.0624    4.6137   -0.5939 C.2       1 <0>         0.0687
     15 C11        -2.5513    4.9787   -1.9288 C.ar      1 <0>         0.0311
     16 C12        -1.2414    5.4486   -2.0951 C.ar      1 <0>        -0.1657
     17 C13        -0.8042    5.7735   -3.3612 C.ar      1 <0>         0.1022
     18 N3         -1.6033    5.6566   -4.4054 N.ar      1 <0>        -0.4787
     19 C14        -2.8450    5.2232   -4.2931 C.ar      1 <0>         0.1027
     20 C15        -3.3638    4.8708   -3.0657 C.ar      1 <0>        -0.1326
     21 C16        -5.1278    6.1178   -0.5297 C.ar      1 <0>        -0.0100
     22 C17        -4.6436    7.1553   -1.3262 C.ar      1 <0>        -0.0771
     23 C18        -5.5171    8.0879   -1.8460 C.ar      1 <0>        -0.1502
     24 C19        -6.8721    8.0013   -1.5692 C.ar      1 <0>         0.1000
     25 C20        -7.3572    6.9754   -0.7741 C.ar      1 <0>        -0.1519
     26 C21        -6.4925    6.0349   -0.2540 C.ar      1 <0>        -0.0612
     27 F1         -7.7229    8.9203   -2.0760 F         1 <0>        -0.1388
     28 H1         -3.6098    1.3227    1.8768 H         1 <0>         0.0831
     29 H2         -4.3937   -0.1638    1.2900 H         1 <0>         0.1128
     30 H3         -2.6719   -0.1841    1.7411 H         1 <0>         0.1114
     31 H4         -0.3588   -0.1780   -0.7061 H         1 <0>         0.1480
     32 H5          1.8490    0.8858   -0.4822 H         1 <0>         0.1392
     33 H6          2.0173    3.2712    0.1006 H         1 <0>         0.1383
     34 H7         -0.0229    4.5968    0.4703 H         1 <0>         0.1312
     35 H8         -3.1402    3.0621    2.2574 H         1 <0>         0.2045
     36 H9         -0.5835    5.5510   -1.2447 H         1 <0>         0.1292
     37 H10         0.2046    6.1329   -3.5003 H         1 <0>         0.1579
     38 H11        -3.4632    5.1440   -5.1751 H         1 <0>         0.1608
     39 H12        -4.3806    4.5166   -2.9814 H         1 <0>         0.1393
     40 H13        -3.5872    7.2260   -1.5392 H         1 <0>         0.1265
     41 H14        -5.1438    8.8891   -2.4666 H         1 <0>         0.1371
     42 H15        -8.4141    6.9123   -0.5608 H         1 <0>         0.1385
     43 H16        -6.8715    5.2359    0.3660 H         1 <0>         0.1371
@<TRIPOS>BOND
     1    1    2 1
     2    1   28 1
     3    1   29 1
     4    1   30 1
     5    2    3 2
     6    2    4 1
     7    4    9 ar
     8    4    5 ar
     9    5    6 ar
    10    5   31 1
    11    6    7 ar
    12    6   32 1
    13    7    8 ar
    14    7   33 1
    15    8    9 ar
    16    8   34 1
    17    9   10 1
    18   10   14 1
    19   10   11 1
    20   11   12 2
    21   11   35 1
    22   12   13 1
    23   13   14 2
    24   13   21 1
    25   14   15 1
    26   15   20 ar
    27   15   16 ar
    28   16   17 ar
    29   16   36 1
    30   17   18 ar
    31   17   37 1
    32   18   19 ar
    33   19   20 ar
    34   19   38 1
    35   20   39 1
    36   21   26 ar
    37   21   22 ar
    38   22   23 ar
    39   22   40 1
    40   23   24 ar
    41   23   41 1
    42   24   25 ar
    43   24   27 1
    44   25   26 ar
    45   25   42 1
    46   26   43 1
@<TRIPOS>MOLECULE
ZINC04617928
   43    46     0     0     0
SMALL
USER_CHARGES

@<TRIPOS>ATOM
      1 C1         10.4879   -1.2747   -2.7666 C.3       1 <0>        -0.4977
      2 S1         10.1861    0.4613   -2.3357 S.o       1 <0>         1.3347
      3 O1         10.9483    0.8034   -1.1861 O.2       1 <0>        -0.8477
      4 C2          8.5202    0.4748   -1.7621 C.ar      1 <0>        -0.4550
      5 C3          8.2503    0.2695   -0.4215 C.ar      1 <0>        -0.0359
      6 C4          6.9455    0.2799    0.0312 C.ar      1 <0>        -0.1276
      7 C5          5.9042    0.4968   -0.8613 C.ar      1 <0>         0.1479
      8 C6          6.1780    0.6973   -2.2076 C.ar      1 <0>        -0.1228
      9 C7          7.4853    0.6910   -2.6534 C.ar      1 <0>        -0.0235
     10 N1          4.5792    0.5074   -0.4051 N.pl3     1 <0>        -0.4093
     11 C8          3.9879   -0.4343    0.3740 C.2       1 <0>         0.2133
     12 N2          2.7506   -0.0921    0.6045 N.2       1 <0>        -0.4665
     13 C9          2.4798    1.0712   -0.0149 C.2       1 <0>         0.0788
     14 C10         3.6329    1.4761   -0.6636 C.2       1 <0>         0.0236
     15 C11         3.8135    2.6985   -1.4694 C.ar      1 <0>         0.0256
     16 C12         4.9496    3.5039   -1.3121 C.ar      1 <0>        -0.1587
     17 C13         5.0794    4.6347   -2.0895 C.ar      1 <0>         0.1075
     18 N3          4.1481    4.9671   -2.9639 N.ar      1 <0>        -0.4770
     19 C14         3.0605    4.2402   -3.1404 C.ar      1 <0>         0.1066
     20 C15         2.8509    3.0904   -2.4097 C.ar      1 <0>        -0.1461
     21 C16         1.1850    1.7907    0.0004 C.ar      1 <0>        -0.0211
     22 C17        -0.0126    1.0758    0.0080 C.ar      1 <0>        -0.0593
     23 C18        -1.2158    1.7504    0.0173 C.ar      1 <0>        -0.1530
     24 C19        -1.2359    3.1359    0.0293 C.ar      1 <0>         0.1056
     25 C20        -0.0488    3.8506    0.0222 C.ar      1 <0>        -0.1512
     26 C21         1.1595    3.1852    0.0076 C.ar      1 <0>        -0.0719
     27 F1         -2.4167    3.7920    0.0427 F         1 <0>        -0.1371
     28 H1          9.7849   -1.5846   -3.5398 H         1 <0>         0.1130
     29 H2         11.5071   -1.3853   -3.1369 H         1 <0>         0.1104
     30 H3         10.3531   -1.8973   -1.8822 H         1 <0>         0.0825
     31 H4          9.0607    0.1012    0.2723 H         1 <0>         0.1388
     32 H5          6.7353    0.1191    1.0783 H         1 <0>         0.1360
     33 H6          5.3699    0.8619   -2.9049 H         1 <0>         0.1345
     34 H7          7.6992    0.8514   -3.6998 H         1 <0>         0.1496
     35 H8          4.4688   -1.3257    0.7487 H         1 <0>         0.2153
     36 H9          5.7135    3.2406   -0.5955 H         1 <0>         0.1297
     37 H10         5.9530    5.2599   -1.9784 H         1 <0>         0.1600
     38 H11         2.3246    4.5509   -3.8672 H         1 <0>         0.1620
     39 H12         1.9589    2.5004   -2.5598 H         1 <0>         0.1393
     40 H13         0.0021   -0.0041    0.0020 H         1 <0>         0.1389
     41 H14        -2.1437    1.1977    0.0187 H         1 <0>         0.1400
     42 H15        -0.0696    4.9304    0.0279 H         1 <0>         0.1388
     43 H16         2.0842    3.7431    0.0014 H         1 <0>         0.1290
@<TRIPOS>BOND
     1    1    2 1
     2    1   28 1
     3    1   29 1
     4    1   30 1
     5    2    3 2
     6    2    4 1
     7    4    9 ar
     8    4    5 ar
     9    5    6 ar
    10    5   31 1
    11    6    7 ar
    12    6   32 1
    13    7    8 ar
    14    7   10 1
    15    8    9 ar
    16    8   33 1
    17    9   34 1
    18   10   14 1
    19   10   11 1
    20   11   12 2
    21   11   35 1
    22   12   13 1
    23   13   14 2
    24   13   21 1
    25   14   15 1
    26   15   20 ar
    27   15   16 ar
    28   16   17 ar
    29   16   36 1
    30   17   18 ar
    31   17   37 1
    32   18   19 ar
    33   19   20 ar
    34   19   38 1
    35   20   39 1
    36   21   26 ar
    37   21   22 ar
    38   22   23 ar
    39   22   40 1
    40   23   24 ar
    41   23   41 1
    42   24   25 ar
    43   24   27 1
    44   25   26 ar
    45   25   42 1
    46   26   43 1
@<TRIPOS>MOLECULE
ZINC04617928
   43    46     0     0     0
SMALL
USER_CHARGES

@<TRIPOS>ATOM
      1 C1         10.4879   -1.2747   -2.7666 C.3       1 <0>        -0.4977
      2 S1         10.1861    0.4613   -2.3357 S.o       1 <0>         1.3347
      3 O1         10.9483    0.8034   -1.1861 O.2       1 <0>        -0.8477
      4 C2          8.5202    0.4748   -1.7621 C.ar      1 <0>        -0.4550
      5 C3          8.2503    0.2695   -0.4215 C.ar      1 <0>        -0.0359
      6 C4          6.9455    0.2799    0.0312 C.ar      1 <0>        -0.1276
      7 C5          5.9042    0.4968   -0.8613 C.ar      1 <0>         0.1479
      8 C6          6.1780    0.6973   -2.2076 C.ar      1 <0>        -0.1228
      9 C7          7.4853    0.6910   -2.6534 C.ar      1 <0>        -0.0235
     10 N1          4.5792    0.5074   -0.4051 N.pl3     1 <0>        -0.4093
     11 C8          3.9879   -0.4343    0.3740 C.2       1 <0>         0.2133
     12 N2          2.7506   -0.0921    0.6045 N.2       1 <0>        -0.4665
     13 C9          2.4798    1.0712   -0.0149 C.2       1 <0>         0.0788
     14 C10         3.6329    1.4761   -0.6636 C.2       1 <0>         0.0236
     15 C11         3.8135    2.6985   -1.4694 C.ar      1 <0>         0.0256
     16 C12         4.9496    3.5039   -1.3121 C.ar      1 <0>        -0.1587
     17 C13         5.0794    4.6347   -2.0895 C.ar      1 <0>         0.1075
     18 N3          4.1481    4.9671   -2.9639 N.ar      1 <0>        -0.4770
     19 C14         3.0605    4.2402   -3.1404 C.ar      1 <0>         0.1066
     20 C15         2.8509    3.0904   -2.4097 C.ar      1 <0>        -0.1461
     21 C16         1.1850    1.7907    0.0004 C.ar      1 <0>        -0.0211
     22 C17        -0.0126    1.0758    0.0080 C.ar      1 <0>        -0.0593
     23 C18        -1.2158    1.7504    0.0173 C.ar      1 <0>        -0.1530
     24 C19        -1.2359    3.1359    0.0293 C.ar      1 <0>         0.1056
     25 C20        -0.0488    3.8506    0.0222 C.ar      1 <0>        -0.1512
     26 C21         1.1595    3.1852    0.0076 C.ar      1 <0>        -0.0719
     27 F1         -2.4167    3.7920    0.0427 F         1 <0>        -0.1371
     28 H1          9.7849   -1.5846   -3.5398 H         1 <0>         0.1130
     29 H2         11.5071   -1.3853   -3.1369 H         1 <0>         0.1104
     30 H3         10.3531   -1.8973   -1.8822 H         1 <0>         0.0825
     31 H4          9.0607    0.1012    0.2723 H         1 <0>         0.1388
     32 H5          6.7353    0.1191    1.0783 H         1 <0>         0.1360
     33 H6          5.3699    0.8619   -2.9049 H         1 <0>         0.1345
     34 H7          7.6992    0.8514   -3.6998 H         1 <0>         0.1496
     35 H8          4.4688   -1.3257    0.7487 H         1 <0>         0.2153
     36 H9          5.7135    3.2406   -0.5955 H         1 <0>         0.1297
     37 H10         5.9530    5.2599   -1.9784 H         1 <0>         0.1600
     38 H11         2.3246    4.5509   -3.8672 H         1 <0>         0.1620
     39 H12         1.9589    2.5004   -2.5598 H         1 <0>         0.1393
     40 H13         0.0021   -0.0041    0.0020 H         1 <0>         0.1389
     41 H14        -2.1437    1.1977    0.0187 H         1 <0>         0.1400
     42 H15        -0.0696    4.9304    0.0279 H         1 <0>         0.1388
     43 H16         2.0842    3.7431    0.0014 H         1 <0>         0.1290
@<TRIPOS>BOND
     1    1    2 1
     2    1   28 1
     3    1   29 1
     4    1   30 1
     5    2    3 2
     6    2    4 1
     7    4    9 ar
     8    4    5 ar
     9    5    6 ar
    10    5   31 1
    11    6    7 ar
    12    6   32 1
    13    7    8 ar
    14    7   10 1
    15    8    9 ar
    16    8   33 1
    17    9   34 1
    18   10   14 1
    19   10   11 1
    20   11   12 2
    21   11   35 1
    22   12   13 1
    23   13   14 2
    24   13   21 1
    25   14   15 1
    26   15   20 ar
    27   15   16 ar
    28   16   17 ar
    29   16   36 1
    30   17   18 ar
    31   17   37 1
    32   18   19 ar
    33   19   20 ar
    34   19   38 1
    35   20   39 1
    36   21   26 ar
    37   21   22 ar
    38   22   23 ar
    39   22   40 1
    40   23   24 ar
    41   23   41 1
    42   24   25 ar
    43   24   27 1
    44   25   26 ar
    45   25   42 1
    46   26   43 1
@<TRIPOS>MOLECULE
ZINC04628817
   47    50     0     0     0
SMALL
USER_CHARGES

@<TRIPOS>ATOM
      1 C1          3.4621   -0.0335    2.2086 C.3       1 <0>        -0.1131
      2 C2          2.3821    0.1650    1.1765 C.ar      1 <0>        -0.1200
      3 C3          1.2312   -0.5939    1.2130 C.ar      1 <0>         0.0991
      4 N1          0.2803   -0.4263    0.3135 N.ar      1 <0>        -0.4831
      5 C4          0.3817    0.4652   -0.6547 C.ar      1 <0>         0.0924
      6 C5          1.4984    1.2659   -0.7655 C.ar      1 <0>        -0.1590
      7 C6          2.5318    1.1222    0.1672 C.ar      1 <0>         0.0329
      8 C7          3.7500    1.9605    0.0883 C.2       1 <0>        -0.1117
      9 C8          4.7299    1.9223   -0.9261 C.2       1 <0>        -0.1379
     10 C9          5.6766    2.8503   -0.6184 C.2       1 <0>         0.0538
     11 N2          5.3219    3.4682    0.5548 N.pl3     1 <0>        -0.5374
     12 H1          5.8243    4.1700    0.9973 H         1 <0>         0.4184
     13 C10         4.1399    2.9360    0.9949 C.2       1 <0>         0.0912
     14 C11         3.4118    3.3278    2.2171 C.ar      1 <0>        -0.0395
     15 C12         2.0363    3.5674    2.1676 C.ar      1 <0>        -0.0590
     16 C13         1.3604    3.9280    3.3141 C.ar      1 <0>        -0.1478
     17 C14         2.0449    4.0636    4.5117 C.ar      1 <0>         0.1091
     18 C15         3.4105    3.8322    4.5660 C.ar      1 <0>        -0.1493
     19 C16         4.0962    3.4660    3.4273 C.ar      1 <0>        -0.0810
     20 F1          1.3783    4.4222    5.6307 F         1 <0>        -0.1350
     21 C17         6.8864    3.1439   -1.4151 C.ar      1 <0>         0.0221
     22 C18         7.1386    2.4380   -2.5928 C.ar      1 <0>        -0.1209
     23 C19         8.2662    2.7216   -3.3352 C.ar      1 <0>        -0.0324
     24 C20         9.1528    3.6942   -2.9082 C.ar      1 <0>        -0.4655
     25 C21         8.9120    4.3933   -1.7386 C.ar      1 <0>        -0.0446
     26 C22         7.7848    4.1242   -0.9902 C.ar      1 <0>        -0.1394
     27 S1         10.5947    4.0446   -3.8583 S.o       1 <0>         1.3313
     28 O1         10.9218    5.3819   -3.5063 O.2       1 <0>        -0.8540
     29 C23        11.8478    2.9186   -3.1857 C.3       1 <0>        -0.4979
     30 H2          4.2163   -0.7169    1.8184 H         1 <0>         0.0721
     31 H3          3.9254    0.9259    2.4387 H         1 <0>         0.0720
     32 H4          3.0257   -0.4530    3.1150 H         1 <0>         0.0672
     33 H5          1.1044   -1.3322    1.9909 H         1 <0>         0.1538
     34 H6         -0.4213    0.5689   -1.3695 H         1 <0>         0.1556
     35 H7          1.5745    1.9935   -1.5600 H         1 <0>         0.1354
     36 H8          4.7288    1.2744   -1.7902 H         1 <0>         0.1477
     37 H9          1.5028    3.4669    1.2340 H         1 <0>         0.1355
     38 H10         0.2964    4.1092    3.2780 H         1 <0>         0.1412
     39 H11         3.9384    3.9394    5.5020 H         1 <0>         0.1406
     40 H12         5.1604    3.2867    3.4706 H         1 <0>         0.1319
     41 H13         6.4498    1.6752   -2.9247 H         1 <0>         0.1362
     42 H14         8.4598    2.1799   -4.2492 H         1 <0>         0.1434
     43 H15         9.6079    5.1515   -1.4111 H         1 <0>         0.1282
     44 H16         7.5977    4.6711   -0.0779 H         1 <0>         0.1173
     45 H17        11.5146    1.8882   -3.3099 H         1 <0>         0.1121
     46 H18        12.7885    3.0627   -3.7171 H         1 <0>         0.1079
     47 H19        11.9933    3.1282   -2.1260 H         1 <0>         0.0802
@<TRIPOS>BOND
     1    1    2 1
     2    1   30 1
     3    1   31 1
     4    1   32 1
     5    2    7 ar
     6    2    3 ar
     7    3    4 ar
     8    3   33 1
     9    4    5 ar
    10    5    6 ar
    11    5   34 1
    12    6    7 ar
    13    6   35 1
    14    7    8 1
    15    8   13 2
    16    8    9 1
    17    9   10 2
    18    9   36 1
    19   10   11 1
    20   10   21 1
    21   11   12 1
    22   11   13 1
    23   13   14 1
    24   14   19 ar
    25   14   15 ar
    26   15   16 ar
    27   15   37 1
    28   16   17 ar
    29   16   38 1
    30   17   18 ar
    31   17   20 1
    32   18   19 ar
    33   18   39 1
    34   19   40 1
    35   21   26 ar
    36   21   22 ar
    37   22   23 ar
    38   22   41 1
    39   23   24 ar
    40   23   42 1
    41   24   25 ar
    42   24   27 1
    43   25   26 ar
    44   25   43 1
    45   26   44 1
    46   27   28 2
    47   27   29 1
    48   29   45 1
    49   29   46 1
    50   29   47 1
@<TRIPOS>MOLECULE
ZINC04628818
   47    50     0     0     0
SMALL
USER_CHARGES

@<TRIPOS>ATOM
      1 C1         -1.2986   -0.7651    0.0103 C.3       1 <0>        -0.1060
      2 C2          0.0021   -0.0041    0.0020 C.ar      1 <0>         0.1305
      3 C3          1.1949   -0.6959   -0.0135 C.ar      1 <0>        -0.1640
      4 C4          2.3956    0.0222   -0.0211 C.ar      1 <0>         0.0416
      5 C5          2.3294    1.4200   -0.0125 C.ar      1 <0>        -0.1678
      6 C6          1.0935    2.0307    0.0025 C.ar      1 <0>         0.1072
      7 N1         -0.0158    1.3154    0.0093 N.ar      1 <0>        -0.4890
      8 C7          3.7006   -0.6777   -0.0374 C.2       1 <0>        -0.1166
      9 C8          4.1054   -1.7172    0.8265 C.2       1 <0>        -0.1372
     10 C9          5.3687   -2.0781    0.4716 C.2       1 <0>         0.0534
     11 N2          5.7715   -1.2930   -0.5797 N.pl3     1 <0>        -0.5372
     12 H1          6.6333   -1.3412   -1.0223 H         1 <0>         0.4187
     13 C10         4.7582   -0.4306   -0.9011 C.2       1 <0>         0.0954
     14 C11         4.7859    0.5819   -1.9742 C.ar      1 <0>        -0.0417
     15 C12         3.6924    0.7246   -2.8321 C.ar      1 <0>        -0.0573
     16 C13         3.7218    1.6764   -3.8294 C.ar      1 <0>        -0.1480
     17 C14         4.8380    2.4825   -3.9892 C.ar      1 <0>         0.1093
     18 C15         5.9280    2.3419   -3.1445 C.ar      1 <0>        -0.1497
     19 C16         5.9080    1.3977   -2.1400 C.ar      1 <0>        -0.0802
     20 F1          4.8635    3.4092   -4.9719 F         1 <0>        -0.1348
     21 C17         6.1755   -3.1359    1.1155 C.ar      1 <0>         0.0218
     22 C18         5.6515   -3.8641    2.1850 C.ar      1 <0>        -0.1207
     23 C19         6.4073   -4.8546    2.7772 C.ar      1 <0>        -0.0324
     24 C20         7.6870   -5.1182    2.3217 C.ar      1 <0>        -0.4655
     25 C21         8.2148   -4.3959    1.2661 C.ar      1 <0>        -0.0446
     26 C22         7.4671   -3.4073    0.6606 C.ar      1 <0>        -0.1393
     27 S1          8.6486   -6.3797    3.0889 S.o       1 <0>         1.3316
     28 O1          9.5692   -6.7717    2.0800 O.2       1 <0>        -0.8540
     29 C23         9.5352   -5.5119    4.4123 C.3       1 <0>        -0.4980
     30 H2         -1.6220   -0.9431   -1.0152 H         1 <0>         0.0781
     31 H3         -1.1579   -1.7195    0.5177 H         1 <0>         0.0748
     32 H4         -2.0567   -0.1833    0.5346 H         1 <0>         0.0777
     33 H5          1.2021   -1.7759   -0.0201 H         1 <0>         0.1349
     34 H6          3.2330    2.0115   -0.0176 H         1 <0>         0.1305
     35 H7          1.0322    3.1089    0.0089 H         1 <0>         0.1549
     36 H8          3.5184   -2.1496    1.6233 H         1 <0>         0.1487
     37 H9          2.8243    0.0936   -2.7118 H         1 <0>         0.1351
     38 H10         2.8753    1.7909   -4.4901 H         1 <0>         0.1415
     39 H11         6.7947    2.9731   -3.2736 H         1 <0>         0.1406
     40 H12         6.7581    1.2886   -1.4829 H         1 <0>         0.1316
     41 H13         4.6546   -3.6561    2.5447 H         1 <0>         0.1364
     42 H14         6.0012   -5.4223    3.6013 H         1 <0>         0.1437
     43 H15         9.2141   -4.6069    0.9152 H         1 <0>         0.1284
     44 H16         7.8800   -2.8447   -0.1637 H         1 <0>         0.1173
     45 H17         8.8163   -5.0676    5.1007 H         1 <0>         0.1121
     46 H18        10.1656   -6.2189    4.9517 H         1 <0>         0.1079
     47 H19        10.1566   -4.7277    3.9798 H         1 <0>         0.0802
@<TRIPOS>BOND
     1    1    2 1
     2    1   30 1
     3    1   31 1
     4    1   32 1
     5    2    7 ar
     6    2    3 ar
     7    3    4 ar
     8    3   33 1
     9    4    5 ar
    10    4    8 1
    11    5    6 ar
    12    5   34 1
    13    6    7 ar
    14    6   35 1
    15    8   13 2
    16    8    9 1
    17    9   10 2
    18    9   36 1
    19   10   11 1
    20   10   21 1
    21   11   12 1
    22   11   13 1
    23   13   14 1
    24   14   19 ar
    25   14   15 ar
    26   15   16 ar
    27   15   37 1
    28   16   17 ar
    29   16   38 1
    30   17   18 ar
    31   17   20 1
    32   18   19 ar
    33   18   39 1
    34   19   40 1
    35   21   26 ar
    36   21   22 ar
    37   22   23 ar
    38   22   41 1
    39   23   24 ar
    40   23   42 1
    41   24   25 ar
    42   24   27 1
    43   25   26 ar
    44   25   43 1
    45   26   44 1
    46   27   28 2
    47   27   29 1
    48   29   45 1
    49   29   46 1
    50   29   47 1
