@<TRIPOS>MOLECULE
ZINC03814367
   70    74     0     0     0
SMALL
USER_CHARGES

@<TRIPOS>ATOM
      1 C1         -0.1430    3.3444    5.7542 C.3       1 <0>        -0.1569
      2 C2          0.9298    3.4171    4.6659 C.3       1 <0>        -0.1271
      3 C3          1.2864    2.0014    4.2055 C.3       1 <0>        -0.0791
      4 H1          1.7165    1.4497    5.0509 H         1 <0>         0.0700
      5 C4          0.0421    1.2672    3.6836 C.3       1 <0>        -0.1189
      6 C5          0.3376    0.8149    2.2360 C.3       1 <0>        -0.0657
      7 H2          0.1488   -0.2936    2.1590 H         1 <0>         0.0750
      8 C6         -0.6249    1.5181    1.2900 C.3       1 <0>        -0.0699
      9 H3         -1.6175    1.0472    1.3802 H         1 <0>         0.0728
     10 C7         -0.7730    3.0055    1.5863 C.3       1 <0>        -0.1696
     11 C8         -1.8807    3.5966    0.7005 C.3       1 <0>        -0.0999
     12 C9         -1.5634    3.2914   -0.7515 C.2       1 <0>        -0.0156
     13 C10        -1.5934    4.2931   -1.6271 C.2       1 <0>        -0.2471
     14 C11        -1.3581    4.0355   -3.0496 C.2       1 <0>         0.3853
     15 O1         -1.0531    4.9355   -3.8094 O.2       1 <0>        -0.4580
     16 C12        -1.5050    2.6103   -3.5335 C.3       1 <0>        -0.1570
     17 C13        -0.7858    1.6767   -2.5647 C.3       1 <0>        -0.1136
     18 C14        -1.1950    1.8895   -1.1244 C.3       1 <0>        -0.0558
     19 H4         -2.1102    1.2870   -0.9796 H         1 <0>         0.0897
     20 C15        -0.1610    1.3298   -0.1619 C.3       1 <0>        -0.0409
     21 H5         -0.0364    0.2593   -0.3475 H         1 <0>         0.0900
     22 C16         1.1880    2.0050   -0.2386 C.2       1 <0>        -0.1145
     23 C17         1.4491    3.0730   -0.9464 C.2       1 <0>        -0.1866
     24 C18         2.2688    1.3479    0.5974 C.3       1 <0>        -0.0778
     25 C19         1.8234    1.0618    2.0078 C.3       1 <0>        -0.0355
     26 C20         2.3078    2.0578    3.0564 C.3       1 <0>        -0.0312
     27 H6          3.2890    1.7258    3.4389 H         1 <0>         0.0763
     28 C21         2.4449    3.4575    2.5345 C.2       1 <0>        -0.1405
     29 C22         1.8766    3.7933    1.4030 C.2       1 <0>        -0.2293
     30 C23         3.2365    4.4774    3.3119 C.3       1 <0>         0.0809
     31 O2          3.1047    5.7573    2.6903 O.3       1 <0>        -0.3039
     32 C24         3.8339    6.7766    3.2161 C.ar      1 <0>         0.1532
     33 C25         4.7321    6.5300    4.2442 C.ar      1 <0>        -0.2073
     34 C26         5.4763    7.5666    4.7733 C.ar      1 <0>        -0.0432
     35 C27         5.3185    8.8515    4.2862 C.ar      1 <0>        -0.1395
     36 C28         4.4190    9.1008    3.2654 C.ar      1 <0>        -0.0445
     37 C29         3.6769    8.0662    2.7295 C.ar      1 <0>        -0.1488
     38 I1          6.4430   10.4226    5.0963 I         1 <0>        -0.0429
     39 C30         2.5237   -0.2805    2.3722 C.3       1 <0>        -0.1528
     40 H7          0.2363    2.7718    6.6007 H         1 <0>         0.0523
     41 H8         -0.3970    4.3524    6.0820 H         1 <0>         0.0524
     42 H9         -1.0327    2.8571    5.3554 H         1 <0>         0.0564
     43 H10         1.8195    3.9044    5.0647 H         1 <0>         0.0654
     44 H11         0.5505    3.9896    3.8195 H         1 <0>         0.0731
     45 H12        -0.8432    1.9025    3.7404 H         1 <0>         0.0785
     46 H13        -0.1484    0.3820    4.3164 H         1 <0>         0.0581
     47 H14        -1.0515    3.1657    2.6258 H         1 <0>         0.0754
     48 H15         0.1482    3.5405    1.3700 H         1 <0>         0.1224
     49 H16        -2.8370    3.1578    0.9773 H         1 <0>         0.0817
     50 H17        -1.9177    4.6758    0.8475 H         1 <0>         0.0773
     51 H18        -1.7851    5.3006   -1.2861 H         1 <0>         0.1344
     52 H19        -1.1019    2.5244   -4.4446 H         1 <0>         0.0839
     53 H20        -2.5646    2.3434   -3.5797 H         1 <0>         0.0996
     54 H21         0.2873    1.7788   -2.6882 H         1 <0>         0.0784
     55 H22        -1.0454    0.6431   -2.8425 H         1 <0>         0.0773
     56 H23         0.6694    3.5361   -1.5330 H         1 <0>         0.1072
     57 H24         2.4445    3.4920   -0.9445 H         1 <0>         0.1052
     58 H25         2.5161    0.3872    0.1183 H         1 <0>         0.0704
     59 H26         3.1677    1.9533    0.5814 H         1 <0>         0.0781
     60 H27         2.0743    4.7607    0.9656 H         1 <0>         0.1013
     61 H28         1.2102    3.1026    0.9076 H         1 <0>         0.1911
     62 H29         2.8590    4.5288    4.3332 H         1 <0>         0.0867
     63 H30         4.2871    4.1873    3.3271 H         1 <0>         0.0647
     64 H31         4.8527    5.5276    4.6276 H         1 <0>         0.1348
     65 H32         6.1789    7.3743    5.5706 H         1 <0>         0.1313
     66 H33         4.2971   10.1049    2.8868 H         1 <0>         0.1359
     67 H34         2.9752    8.2612    1.9320 H         1 <0>         0.1390
     68 H35         3.6041   -0.1601    2.2920 H         1 <0>         0.0548
     69 H36         2.2641   -0.5604    3.3931 H         1 <0>         0.0566
     70 H37         2.1932   -1.0606    1.6864 H         1 <0>         0.0564
@<TRIPOS>BOND
     1    1    2 1
     2    1   40 1
     3    1   41 1
     4    1   42 1
     5    2    3 1
     6    2   43 1
     7    2   44 1
     8    3    4 1
     9    3   26 1
    10    3    5 1
    11    5    6 1
    12    5   45 1
    13    5   46 1
    14    6    7 1
    15    6   25 1
    16    6    8 1
    17    8    9 1
    18    8   20 1
    19    8   10 1
    20   10   11 1
    21   10   47 1
    22   10   48 1
    23   11   12 1
    24   11   49 1
    25   11   50 1
    26   12   18 1
    27   12   13 2
    28   13   14 1
    29   13   51 1
    30   14   15 2
    31   14   16 1
    32   16   17 1
    33   16   52 1
    34   16   53 1
    35   17   18 1
    36   17   54 1
    37   17   55 1
    38   18   19 1
    39   18   20 1
    40   20   21 1
    41   20   22 1
    42   22   23 2
    43   22   24 1
    44   23   56 1
    45   23   57 1
    46   24   25 1
    47   24   58 1
    48   24   59 1
    49   25   26 1
    50   25   39 1
    51   26   27 1
    52   26   28 1
    53   28   29 2
    54   28   30 1
    55   29   60 1
    56   29   61 1
    57   30   31 1
    58   30   62 1
    59   30   63 1
    60   31   32 1
    61   32   37 ar
    62   32   33 ar
    63   33   34 ar
    64   33   64 1
    65   34   35 ar
    66   34   65 1
    67   35   36 ar
    68   35   38 1
    69   36   37 ar
    70   36   66 1
    71   37   67 1
    72   39   68 1
    73   39   69 1
    74   39   70 1
@<TRIPOS>MOLECULE
ZINC03814369
   54    57     0     0     0
SMALL
USER_CHARGES

@<TRIPOS>ATOM
      1 C1         -4.4772   -0.0269    3.0997 C.3       1 <0>        -0.1658
      2 C2         -3.7054   -0.1844    1.7881 C.3       1 <0>        -0.1070
      3 C3         -3.6366    1.1869    1.0595 C.3       1 <0>        -0.0197
      4 C4         -2.9775    2.1161    2.0463 C.3       1 <0>        -0.0869
      5 C5         -3.4127    3.5550    1.8478 C.2       1 <0>        -0.1061
      6 C6         -2.5303    4.5063    1.7034 C.2       1 <0>        -0.1968
      7 C7         -4.9086    3.7550    1.8286 C.3       1 <0>        -0.0370
      8 H1         -5.3413    3.2839    2.7188 H         1 <0>         0.0869
      9 C8         -5.4185    3.0054    0.5924 C.3       1 <0>        -0.0689
     10 H2         -6.5155    3.1161    0.5658 H         1 <0>         0.0743
     11 C9         -5.0813    1.5226    0.6865 C.3       1 <0>        -0.0749
     12 H3         -5.7760    1.0291    1.4074 H         1 <0>         0.0917
     13 C10        -5.2677    0.9045   -0.7262 C.3       1 <0>        -0.1183
     14 C11        -3.8767    0.9966   -1.3823 C.3       1 <0>        -0.1479
     15 C12        -2.8583    0.9194   -0.2255 C.3       1 <0>         0.1758
     16 C13        -1.7398    1.8957   -0.4600 C.2       1 <0>        -0.1143
     17 C14        -0.5026    1.4691   -0.5362 C.2       1 <0>        -0.1640
     18 I1          1.0555    2.8288   -0.8715 I         1 <0>        -0.0669
     19 O1         -2.3114   -0.4110   -0.1773 O.3       1 <0>        -0.5507
     20 C15        -4.8428    3.6341   -0.6728 C.3       1 <0>        -0.1201
     21 C16        -5.3134    5.0877   -0.7944 C.3       1 <0>        -0.0999
     22 C17        -4.9426    5.8298    0.4760 C.2       1 <0>        -0.0169
     23 C18        -4.2648    6.9678    0.3747 C.2       1 <0>        -0.2452
     24 C19        -3.9416    7.7357    1.5804 C.2       1 <0>         0.3858
     25 O2         -3.0449    8.5582    1.5813 O.2       1 <0>        -0.4574
     26 C20        -4.7628    7.4624    2.8199 C.3       1 <0>        -0.1570
     27 C21        -4.8950    5.9583    3.0237 C.3       1 <0>        -0.1130
     28 C22        -5.3323    5.2145    1.7844 C.3       1 <0>        -0.0551
     29 H4         -6.4372    5.2141    1.7974 H         1 <0>         0.0877
     30 H5         -4.6750   -1.0107    3.5254 H         1 <0>         0.0546
     31 H6         -3.8849    0.5603    3.8016 H         1 <0>         0.0578
     32 H7         -5.4216    0.4820    2.9067 H         1 <0>         0.0587
     33 H8         -4.2142   -0.9087    1.1519 H         1 <0>         0.0670
     34 H9         -2.6951   -0.5340    2.0007 H         1 <0>         0.0712
     35 H10        -1.9008    2.0388    2.0285 H         1 <0>         0.0729
     36 H11        -3.3042    1.8146    3.0567 H         1 <0>         0.0848
     37 H12        -2.8546    5.5260    1.5571 H         1 <0>         0.1037
     38 H13        -1.4760    4.2736    1.7302 H         1 <0>         0.0970
     39 H14        -6.0082    1.4610   -1.3022 H         1 <0>         0.0742
     40 H15        -5.5821   -0.1412   -0.6487 H         1 <0>         0.0677
     41 H16        -3.7618    1.9322   -1.9244 H         1 <0>         0.0799
     42 H17        -3.7264    0.1560   -2.0631 H         1 <0>         0.0728
     43 H18        -1.9553    2.9487   -0.5656 H         1 <0>         0.1283
     44 H19        -0.2871    0.4161   -0.4305 H         1 <0>         0.1433
     45 H20        -1.8470   -0.6748   -0.9834 H         1 <0>         0.3718
     46 H21        -3.7560    3.6196   -0.6457 H         1 <0>         0.0722
     47 H22        -5.1912    3.0889   -1.5528 H         1 <0>         0.0763
     48 H23        -4.8318    5.5570   -1.6506 H         1 <0>         0.0781
     49 H24        -6.3954    5.1068   -0.9254 H         1 <0>         0.0835
     50 H25        -3.9508    7.3285   -0.5946 H         1 <0>         0.1344
     51 H26        -5.6727    7.8629    2.7119 H         1 <0>         0.0895
     52 H27        -4.2715    7.9081    3.6899 H         1 <0>         0.0937
     53 H28        -5.6571    5.7929    3.8038 H         1 <0>         0.0758
     54 H29        -3.9621    5.5590    3.4106 H         1 <0>         0.0784
@<TRIPOS>BOND
     1    1    2 1
     2    1   30 1
     3    1   31 1
     4    1   32 1
     5    2    3 1
     6    2   33 1
     7    2   34 1
     8    3   11 1
     9    3   15 1
    10    3    4 1
    11    4    5 1
    12    4   35 1
    13    4   36 1
    14    5    6 2
    15    5    7 1
    16    6   37 1
    17    6   38 1
    18    7    8 1
    19    7   28 1
    20    7    9 1
    21    9   10 1
    22    9   11 1
    23    9   20 1
    24   11   12 1
    25   11   13 1
    26   13   14 1
    27   13   39 1
    28   13   40 1
    29   14   15 1
    30   14   41 1
    31   14   42 1
    32   15   16 1
    33   15   19 1
    34   16   17 2
    35   16   43 1
    36   17   18 1
    37   17   44 1
    38   19   45 1
    39   20   21 1
    40   20   46 1
    41   20   47 1
    42   21   22 1
    43   21   48 1
    44   21   49 1
    45   22   28 1
    46   22   23 2
    47   23   24 1
    48   23   50 1
    49   24   25 2
    50   24   26 1
    51   26   27 1
    52   26   51 1
    53   26   52 1
    54   27   28 1
    55   27   53 1
    56   27   54 1
    57   28   29 1
@<TRIPOS>MOLECULE
ZINC03814370
   50    53     0     0     0
SMALL
USER_CHARGES

@<TRIPOS>ATOM
      1 C1         -2.5254    3.0914   -2.0321 C.3       1 <0>        -0.1317
      2 C2         -1.2206    3.0310   -1.1885 C.3       1 <0>        -0.0289
      3 C3         -1.6003    3.5625    0.1660 C.3       1 <0>        -0.1046
      4 C4         -0.7125    3.0758    1.3092 C.3       1 <0>        -0.1204
      5 C5         -0.7204    1.5452    1.2853 C.3       1 <0>        -0.0704
      6 H1         -1.7537    1.1927    1.2652 H         1 <0>         0.0811
      7 C6         -0.0129    1.0974    0.0081 C.3       1 <0>        -0.0728
      8 H2          0.0021   -0.0041    0.0020 H         1 <0>         0.0718
      9 C7         -0.7742    1.5670   -1.2258 C.3       1 <0>        -0.0684
     10 H3         -1.6552    0.9091   -1.3912 H         1 <0>         0.0835
     11 C8          0.1847    1.4851   -2.4450 C.3       1 <0>        -0.1183
     12 C9          0.8501    2.8712   -2.5126 C.3       1 <0>        -0.1476
     13 C10        -0.1950    3.8618   -1.9575 C.3       1 <0>         0.1745
     14 C11         0.4785    4.9072   -1.1158 C.2       1 <0>        -0.1153
     15 C12         0.3754    6.1739   -1.4372 C.2       1 <0>        -0.1631
     16 I1          1.3150    7.6324   -0.2629 I         1 <0>        -0.0655
     17 O1         -0.8513    4.5060   -3.0652 O.3       1 <0>        -0.5505
     18 C13         1.4294    1.5916   -0.0030 C.3       1 <0>        -0.1206
     19 C14         2.1929    0.9732    1.1749 C.3       1 <0>        -0.1012
     20 C15         1.4461    1.2914    2.4569 C.2       1 <0>        -0.0200
     21 C16         2.1176    1.8677    3.4494 C.2       1 <0>        -0.2439
     22 C17         1.4585    2.1350    4.7303 C.2       1 <0>         0.3868
     23 O2          1.9140    2.9276    5.5314 O.2       1 <0>        -0.4587
     24 C18         0.1785    1.3751    5.0122 C.3       1 <0>        -0.1583
     25 C19        -0.7131    1.4518    3.7769 C.3       1 <0>        -0.1143
     26 C20        -0.0177    0.9764    2.5181 C.3       1 <0>        -0.0564
     27 H4         -0.1190   -0.1121    2.4779 H         1 <0>         0.0887
     28 H5         -2.8799    4.1210   -2.0797 H         1 <0>         0.0594
     29 H6         -2.3232    2.7298   -3.0403 H         1 <0>         0.0604
     30 H7         -3.2876    2.4658   -1.5677 H         1 <0>         0.0472
     31 H8         -2.6253    3.2062    0.3844 H         1 <0>         0.0619
     32 H9         -1.6570    4.6458    0.1702 H         1 <0>         0.0671
     33 H10        -1.1261    3.4386    2.2522 H         1 <0>         0.0675
     34 H11         0.3005    3.4478    1.1995 H         1 <0>         0.0681
     35 H12         0.9304    0.7018   -2.3046 H         1 <0>         0.0742
     36 H13        -0.3774    1.2852   -3.3623 H         1 <0>         0.0676
     37 H14         1.7538    2.9027   -1.9087 H         1 <0>         0.0808
     38 H15         1.0846    3.1250   -3.5494 H         1 <0>         0.0730
     39 H16         1.0479    4.6155   -0.2458 H         1 <0>         0.1263
     40 H17        -0.1941    6.4656   -2.3073 H         1 <0>         0.1434
     41 H18        -0.2654    5.0543   -3.6048 H         1 <0>         0.3707
     42 H19         1.9251    1.2806   -0.9268 H         1 <0>         0.0771
     43 H20         1.4670    2.6739    0.0781 H         1 <0>         0.0707
     44 H21         2.2456   -0.1081    1.0420 H         1 <0>         0.0838
     45 H22         3.1977    1.3878    1.2185 H         1 <0>         0.0777
     46 H23         3.1555    2.1387    3.3121 H         1 <0>         0.1322
     47 H24        -0.2875    1.7862    5.7957 H         1 <0>         0.0826
     48 H25         0.4086    0.3309    5.2359 H         1 <0>         0.0982
     49 H26        -1.0532    2.4766    3.6562 H         1 <0>         0.0756
     50 H27        -1.5925    0.8181    3.9462 H         1 <0>         0.0788
@<TRIPOS>BOND
     1    1    2 1
     2    1   28 1
     3    1   29 1
     4    1   30 1
     5    2    9 1
     6    2   13 1
     7    2    3 1
     8    3    4 1
     9    3   31 1
    10    3   32 1
    11    4    5 1
    12    4   33 1
    13    4   34 1
    14    5    6 1
    15    5   26 1
    16    5    7 1
    17    7    8 1
    18    7    9 1
    19    7   18 1
    20    9   10 1
    21    9   11 1
    22   11   12 1
    23   11   35 1
    24   11   36 1
    25   12   13 1
    26   12   37 1
    27   12   38 1
    28   13   14 1
    29   13   17 1
    30   14   15 2
    31   14   39 1
    32   15   16 1
    33   15   40 1
    34   17   41 1
    35   18   19 1
    36   18   42 1
    37   18   43 1
    38   19   20 1
    39   19   44 1
    40   19   45 1
    41   20   26 1
    42   20   21 2
    43   21   22 1
    44   21   46 1
    45   22   23 2
    46   22   24 1
    47   24   25 1
    48   24   47 1
    49   24   48 1
    50   25   26 1
    51   25   49 1
    52   25   50 1
    53   26   27 1
@<TRIPOS>MOLECULE
ZINC03814380
   53    56     0     0     0
SMALL
USER_CHARGES

@<TRIPOS>ATOM
      1 C1         -4.4346    4.2558    2.7402 C.3       1 <0>        -0.1276
      2 C2         -3.0485    4.1129    2.1664 C.2       1 <0>        -0.1526
      3 C3         -2.7671    3.1063    1.3767 C.2       1 <0>        -0.1834
      4 C4         -1.3848    2.9638    0.8045 C.3       1 <0>         0.1761
      5 C5         -0.7645    1.6207    1.2424 C.3       1 <0>        -0.1479
      6 C6         -0.0127    1.0857    0.0080 C.3       1 <0>        -0.1190
      7 C7         -0.8024    1.6415   -1.2060 C.3       1 <0>        -0.0687
      8 H1         -0.1110    1.8064   -2.0622 H         1 <0>         0.0802
      9 C8         -1.3536    2.9853   -0.7220 C.3       1 <0>        -0.0294
     10 C9         -2.6238    3.4423   -1.3891 C.3       1 <0>        -0.1002
     11 C10        -3.6334    2.3313   -1.6556 C.3       1 <0>        -0.1182
     12 C11        -2.9298    1.2519   -2.4805 C.3       1 <0>        -0.0711
     13 H2         -2.4473    1.7161   -3.3450 H         1 <0>         0.0798
     14 C12        -1.8585    0.6150   -1.5962 C.3       1 <0>        -0.0716
     15 H3         -1.3691   -0.1789   -2.1834 H         1 <0>         0.0699
     16 C13        -2.4962   -0.0266   -0.3678 C.3       1 <0>        -0.1205
     17 C14        -3.4526   -1.1410   -0.8024 C.3       1 <0>        -0.1013
     18 C15        -4.4493   -0.5790   -1.7977 C.2       1 <0>        -0.0175
     19 C16        -5.7444   -0.7761   -1.5682 C.2       1 <0>        -0.2469
     20 C17        -6.7461   -0.3122   -2.5315 C.2       1 <0>         0.3874
     21 O1         -7.9141   -0.1854   -2.2207 O.2       1 <0>        -0.4603
     22 C18        -6.2584    0.0044   -3.9287 C.3       1 <0>        -0.1579
     23 C19        -4.9928    0.8489   -3.8219 C.3       1 <0>        -0.1140
     24 C20        -3.9237    0.1968   -2.9673 C.3       1 <0>        -0.0571
     25 H4         -3.3743   -0.5041   -3.6024 H         1 <0>         0.0887
     26 C21        -0.2817    4.0457   -1.1056 C.3       1 <0>        -0.1312
     27 O2         -0.5637    4.0353    1.3057 O.3       1 <0>        -0.5556
     28 H5         -4.4780    5.1458    3.3681 H         1 <0>         0.0614
     29 H6         -5.1561    4.3483    1.9285 H         1 <0>         0.0649
     30 H7         -4.6723    3.3767    3.3392 H         1 <0>         0.0646
     31 H8         -2.2871    4.8403    2.4063 H         1 <0>         0.1147
     32 H9         -3.5284    2.3789    1.1368 H         1 <0>         0.1146
     33 H10        -1.5418    0.9294    1.5564 H         1 <0>         0.0781
     34 H11        -0.0644    1.7866    2.0641 H         1 <0>         0.0681
     35 H12         0.0021   -0.0041    0.0020 H         1 <0>         0.0718
     36 H13         1.0156    1.4609    0.0002 H         1 <0>         0.0649
     37 H14        -2.3412    3.8676   -2.3711 H         1 <0>         0.0573
     38 H15        -3.0908    4.2546   -0.8409 H         1 <0>         0.0671
     39 H16        -4.4711    2.7472   -2.2216 H         1 <0>         0.0647
     40 H17        -4.0098    1.9139   -0.7268 H         1 <0>         0.0696
     41 H18        -1.7223   -0.4691    0.2652 H         1 <0>         0.0758
     42 H19        -3.0495    0.7111    0.2073 H         1 <0>         0.0736
     43 H20        -2.8828   -1.9441   -1.2720 H         1 <0>         0.0831
     44 H21        -3.9799   -1.5297    0.0680 H         1 <0>         0.0768
     45 H22        -6.0614   -1.2786   -0.6647 H         1 <0>         0.1316
     46 H23        -6.9653    0.5119   -4.4215 H         1 <0>         0.0825
     47 H24        -6.0414   -0.9228   -4.4629 H         1 <0>         0.0985
     48 H25        -5.2541    1.8225   -3.4129 H         1 <0>         0.0757
     49 H26        -4.5888    0.9992   -4.8290 H         1 <0>         0.0792
     50 H27        -0.1384    4.0430   -2.1862 H         1 <0>         0.0447
     51 H28        -0.6162    5.0326   -0.7859 H         1 <0>         0.0578
     52 H29         0.6605    3.8043   -0.6136 H         1 <0>         0.0593
     53 H30        -0.5321    4.0882    2.2707 H         1 <0>         0.3691
@<TRIPOS>BOND
     1    1    2 1
     2    1   28 1
     3    1   29 1
     4    1   30 1
     5    2    3 2
     6    2   31 1
     7    3    4 1
     8    3   32 1
     9    4    9 1
    10    4    5 1
    11    4   27 1
    12    5    6 1
    13    5   33 1
    14    5   34 1
    15    6    7 1
    16    6   35 1
    17    6   36 1
    18    7    8 1
    19    7   14 1
    20    7    9 1
    21    9   10 1
    22    9   26 1
    23   10   11 1
    24   10   37 1
    25   10   38 1
    26   11   12 1
    27   11   39 1
    28   11   40 1
    29   12   13 1
    30   12   24 1
    31   12   14 1
    32   14   15 1
    33   14   16 1
    34   16   17 1
    35   16   41 1
    36   16   42 1
    37   17   18 1
    38   17   43 1
    39   17   44 1
    40   18   24 1
    41   18   19 2
    42   19   20 1
    43   19   45 1
    44   20   21 2
    45   20   22 1
    46   22   23 1
    47   22   46 1
    48   22   47 1
    49   23   24 1
    50   23   48 1
    51   23   49 1
    52   24   25 1
    53   26   50 1
    54   26   51 1
    55   26   52 1
    56   27   53 1
@<TRIPOS>MOLECULE
ZINC03814382
   67    71     0     0     0
SMALL
USER_CHARGES

@<TRIPOS>ATOM
      1 C1         -3.9266    4.9070    0.4656 C.3       1 <0>        -0.0445
      2 C2         -3.0447    3.7547    0.2180 C.1       1 <0>        -0.1659
      3 C3         -2.3414    2.8357    0.0206 C.1       1 <0>        -0.2078
      4 C4         -1.4595    1.6834   -0.2270 C.3       1 <0>         0.2574
      5 C5         -1.0022    1.6669   -1.7057 C.3       1 <0>        -0.1448
      6 C6          0.5749    1.7048   -1.6926 C.3       1 <0>        -0.1128
      7 C7          0.8928    1.1375   -0.3026 C.3       1 <0>        -0.0799
      8 H1          0.7732    0.0541   -0.2950 H         1 <0>         0.0858
      9 C8         -0.1785    1.8122    0.5942 C.3       1 <0>        -0.0364
     10 C9         -0.1920    1.0680    1.9178 C.3       1 <0>        -0.0872
     11 C10         1.1459    1.3575    2.6161 C.3       1 <0>        -0.0231
     12 H2          1.2323    0.7270    3.5011 H         1 <0>         0.0991
     13 C11         2.3101    1.0755    1.6872 C.2       1 <0>        -0.0434
     14 C12         3.3681    0.4494    2.1991 C.2       1 <0>        -0.1317
     15 C13         3.3740    0.0089    3.6451 C.3       1 <0>        -0.0813
     16 C14         3.9930   -1.3895    3.7291 C.3       1 <0>        -0.1568
     17 C15         5.3094   -1.4123    3.0000 C.2       1 <0>         0.3865
     18 O1          6.2224   -2.0824    3.4391 O.2       1 <0>        -0.4714
     19 C16         5.5020   -0.6726    1.8205 C.2       1 <0>        -0.2501
     20 C17         4.5616    0.1978    1.3919 C.2       1 <0>         0.0290
     21 C18         4.7048    0.9412    0.0874 C.3       1 <0>        -0.0963
     22 C19         3.3478    0.9167   -0.6149 C.3       1 <0>        -0.1116
     23 C20         2.2575    1.5272    0.2494 C.3       1 <0>        -0.0488
     24 H3          2.3520    2.6128    0.2249 H         1 <0>         0.0956
     25 C21         1.1835    2.8051    3.0331 C.ar      1 <0>        -0.1129
     26 C22         2.3368    3.5459    2.8502 C.ar      1 <0>        -0.0759
     27 C23         2.3729    4.8744    3.2259 C.ar      1 <0>        -0.1940
     28 C24         1.2527    5.4632    3.7987 C.ar      1 <0>         0.2116
     29 C25         0.0977    4.7146    3.9862 C.ar      1 <0>        -0.1935
     30 C26         0.0666    3.3882    3.6030 C.ar      1 <0>        -0.0671
     31 N1          1.2877    6.8048    4.1856 N.pl3     1 <0>        -0.6390
     32 C27         0.1055    7.4240    4.7899 C.3       1 <0>         0.0932
     33 C28         2.5067    7.5928    3.9870 C.3       1 <0>         0.0930
     34 C29         0.1723    3.2862    0.8070 C.3       1 <0>        -0.1575
     35 O2         -2.1335    0.4654    0.0958 O.3       1 <0>        -0.5420
     36 H4         -4.8360    4.8023   -0.1261 H         1 <0>         0.0806
     37 H5         -4.1843    4.9465    1.5240 H         1 <0>         0.0809
     38 H6         -3.4125    5.8255    0.1823 H         1 <0>         0.0807
     39 H7         -1.3460    0.7547   -2.1934 H         1 <0>         0.0798
     40 H8         -1.3933    2.5400   -2.2280 H         1 <0>         0.0714
     41 H9          0.9362    2.7292   -1.7825 H         1 <0>         0.0714
     42 H10         1.0018    1.0746   -2.4728 H         1 <0>         0.0745
     43 H11        -0.2940   -0.0027    1.7405 H         1 <0>         0.0774
     44 H12        -1.0172    1.4232    2.5350 H         1 <0>         0.0715
     45 H13         3.9654    0.7068    4.2377 H         1 <0>         0.0807
     46 H14         2.3521   -0.0176    4.0235 H         1 <0>         0.0936
     47 H15         4.1434   -1.6304    4.6879 H         1 <0>         0.0844
     48 H16         3.3163   -2.1128    3.2742 H         1 <0>         0.0992
     49 H17         6.4106   -0.8015    1.2509 H         1 <0>         0.1340
     50 H18         5.4524    0.4514   -0.5366 H         1 <0>         0.0852
     51 H19         5.0025    1.9720    0.2797 H         1 <0>         0.0883
     52 H20         3.0842   -0.1160   -0.8431 H         1 <0>         0.0694
     53 H21         3.4193    1.4782   -1.5464 H         1 <0>         0.0770
     54 H22         3.2089    3.0862    2.4092 H         1 <0>         0.1209
     55 H23         3.2725    5.4536    3.0788 H         1 <0>         0.1195
     56 H24        -0.7749    5.1692    4.4315 H         1 <0>         0.1195
     57 H25        -0.8310    2.8055    3.7488 H         1 <0>         0.1203
     58 H26         0.1436    7.3001    5.8722 H         1 <0>         0.0477
     59 H27         0.0871    8.4863    4.5463 H         1 <0>         0.0655
     60 H28        -0.7937    6.9464    4.4009 H         1 <0>         0.0681
     61 H29         2.4777    8.0658    3.0054 H         1 <0>         0.0474
     62 H30         2.5729    8.3603    4.7583 H         1 <0>         0.0657
     63 H31         3.3764    6.9388    4.0497 H         1 <0>         0.0684
     64 H32         0.0251    3.8329   -0.1244 H         1 <0>         0.0435
     65 H33        -0.4721    3.7051    1.5799 H         1 <0>         0.0689
     66 H34         1.2138    3.3707    1.1172 H         1 <0>         0.0903
     67 H35        -2.9551    0.3284   -0.3953 H         1 <0>         0.3785
@<TRIPOS>BOND
     1    1    2 1
     2    1   36 1
     3    1   37 1
     4    1   38 1
     5    2    3 3
     6    3    4 1
     7    4    9 1
     8    4    5 1
     9    4   35 1
    10    5    6 1
    11    5   39 1
    12    5   40 1
    13    6    7 1
    14    6   41 1
    15    6   42 1
    16    7    8 1
    17    7   23 1
    18    7    9 1
    19    9   10 1
    20    9   34 1
    21   10   11 1
    22   10   43 1
    23   10   44 1
    24   11   12 1
    25   11   13 1
    26   11   25 1
    27   13   23 1
    28   13   14 2
    29   14   20 1
    30   14   15 1
    31   15   16 1
    32   15   45 1
    33   15   46 1
    34   16   17 1
    35   16   47 1
    36   16   48 1
    37   17   18 2
    38   17   19 1
    39   19   20 2
    40   19   49 1
    41   20   21 1
    42   21   22 1
    43   21   50 1
    44   21   51 1
    45   22   23 1
    46   22   52 1
    47   22   53 1
    48   23   24 1
    49   25   30 ar
    50   25   26 ar
    51   26   27 ar
    52   26   54 1
    53   27   28 ar
    54   27   55 1
    55   28   29 ar
    56   28   31 1
    57   29   30 ar
    58   29   56 1
    59   30   57 1
    60   31   32 1
    61   31   33 1
    62   32   58 1
    63   32   59 1
    64   32   60 1
    65   33   61 1
    66   33   62 1
    67   33   63 1
    68   34   64 1
    69   34   65 1
    70   34   66 1
    71   35   67 1
@<TRIPOS>MOLECULE
ZINC03814383
   53    56     0     0     0
SMALL
USER_CHARGES

@<TRIPOS>ATOM
      1 C1         -2.2176    2.2641    1.2286 C.3       1 <0>        -0.1982
      2 C2         -0.7281    2.0356    1.2402 C.2       1 <0>         0.3622
      3 O1         -0.0910    2.2576    2.2418 O.2       1 <0>        -0.4541
      4 C3         -0.0337    1.5299    0.0020 C.3       1 <0>        -0.1244
      5 H1         -0.4737    1.9167   -0.8084 H         1 <0>         0.0891
      6 C4          1.4696    1.9020    0.0399 C.3       1 <0>        -0.1196
      7 C5          2.2545    0.5665   -0.0714 C.3       1 <0>        -0.1143
      8 C6          1.2520   -0.3645   -0.7629 C.3       1 <0>        -0.0791
      9 H2          1.1801   -0.1401   -1.8271 H         1 <0>         0.0792
     10 C7         -0.0706    0.0058   -0.0395 C.3       1 <0>        -0.0499
     11 C8         -1.2029   -0.6226   -0.8290 C.3       1 <0>        -0.1054
     12 C9         -1.0332   -2.1469   -0.7280 C.3       1 <0>        -0.1225
     13 C10         0.3299   -2.5982   -1.2435 C.3       1 <0>        -0.0661
     14 H3          0.3863   -2.4038   -2.3145 H         1 <0>         0.0716
     15 C11         1.4785   -1.8504   -0.5509 C.3       1 <0>        -0.0788
     16 H4          1.4886   -2.0867    0.5131 H         1 <0>         0.0880
     17 C12         2.8054   -2.2675   -1.1918 C.3       1 <0>        -0.1134
     18 C13         3.0538   -3.7520   -0.9151 C.3       1 <0>        -0.0975
     19 C14         1.8581   -4.5461   -1.4089 C.2       1 <0>        -0.0168
     20 C15         2.0927   -5.6150   -2.1691 C.2       1 <0>        -0.2433
     21 C16         0.9750   -6.4391   -2.6420 C.2       1 <0>         0.3868
     22 O2          1.0826   -7.1687   -3.6054 O.2       1 <0>        -0.4573
     23 C17        -0.3218   -6.3309   -1.8640 C.3       1 <0>        -0.1590
     24 C18        -0.6375   -4.8442   -1.7050 C.3       1 <0>        -0.1053
     25 C19         0.4861   -4.1046   -1.0011 C.3       1 <0>        -0.0285
     26 C20         0.3328   -4.3592    0.4998 C.3       1 <0>        -0.1509
     27 C21        -0.0603   -0.5520    1.3851 C.3       1 <0>        -0.1572
     28 H5         -2.5834    2.0320    0.3273 H         1 <0>         0.0725
     29 H6         -2.6877    1.6350    1.9845 H         1 <0>         0.0909
     30 H7         -2.4263    3.3115    1.4466 H         1 <0>         0.0917
     31 H8          1.7155    2.5516   -0.8001 H         1 <0>         0.0678
     32 H9          1.7084    2.3990    0.9802 H         1 <0>         0.0799
     33 H10         2.5137    0.1879    0.9173 H         1 <0>         0.0704
     34 H11         3.1489    0.6914   -0.6817 H         1 <0>         0.0679
     35 H12        -2.1616   -0.3266   -0.4033 H         1 <0>         0.0666
     36 H13        -1.1463   -0.3109   -1.8719 H         1 <0>         0.0679
     37 H14        -1.1365   -2.4478    0.3146 H         1 <0>         0.0750
     38 H15        -1.8135   -2.6311   -1.3153 H         1 <0>         0.0667
     39 H16         3.6167   -1.6770   -0.7662 H         1 <0>         0.0722
     40 H17         2.7582   -2.1007   -2.2679 H         1 <0>         0.0658
     41 H18         3.1792   -3.9082    0.1563 H         1 <0>         0.0843
     42 H19         3.9517   -4.0788   -1.4397 H         1 <0>         0.0775
     43 H20         3.1061   -5.8745   -2.4375 H         1 <0>         0.1336
     44 H21        -1.0515   -6.7950   -2.3662 H         1 <0>         0.0828
     45 H22        -0.2052   -6.7928   -0.8836 H         1 <0>         0.0989
     46 H23        -1.5535   -4.7353   -1.1242 H         1 <0>         0.0838
     47 H24        -0.7890   -4.4053   -2.6912 H         1 <0>         0.0691
     48 H25        -0.6520   -4.0251    0.8263 H         1 <0>         0.0694
     49 H26         0.4398   -5.4253    0.7003 H         1 <0>         0.0588
     50 H27         1.1015   -3.8086    1.0421 H         1 <0>         0.0637
     51 H28        -0.9848   -0.2737    1.8910 H         1 <0>         0.0509
     52 H29         0.0215   -1.6383    1.3494 H         1 <0>         0.0720
     53 H30         0.7899   -0.1414    1.9299 H         1 <0>         0.0646
@<TRIPOS>BOND
     1    1    2 1
     2    1   28 1
     3    1   29 1
     4    1   30 1
     5    2    3 2
     6    2    4 1
     7    4    5 1
     8    4   10 1
     9    4    6 1
    10    6    7 1
    11    6   31 1
    12    6   32 1
    13    7    8 1
    14    7   33 1
    15    7   34 1
    16    8    9 1
    17    8   15 1
    18    8   10 1
    19   10   11 1
    20   10   27 1
    21   11   12 1
    22   11   35 1
    23   11   36 1
    24   12   13 1
    25   12   37 1
    26   12   38 1
    27   13   14 1
    28   13   25 1
    29   13   15 1
    30   15   16 1
    31   15   17 1
    32   17   18 1
    33   17   39 1
    34   17   40 1
    35   18   19 1
    36   18   41 1
    37   18   42 1
    38   19   25 1
    39   19   20 2
    40   20   21 1
    41   20   43 1
    42   21   22 2
    43   21   23 1
    44   23   24 1
    45   23   44 1
    46   23   45 1
    47   24   25 1
    48   24   46 1
    49   24   47 1
    50   25   26 1
    51   26   48 1
    52   26   49 1
    53   26   50 1
    54   27   51 1
    55   27   52 1
    56   27   53 1
@<TRIPOS>MOLECULE
ZINC03831934
   55    58     0     0     0
SMALL
USER_CHARGES

@<TRIPOS>ATOM
      1 C1          2.1232   -0.0266   -0.5798 C.3       1 <0>        -0.1107
      2 C2          1.9372    1.4253   -0.9380 C.2       1 <0>        -0.1919
      3 C3          0.7475    1.8628   -1.3533 C.2       1 <0>         0.1149
      4 C4         -0.3950    0.9387   -1.6293 C.2       1 <0>        -0.1489
      5 C5         -0.2371   -0.2607   -2.2244 C.2       1 <0>         0.0734
      6 O1         -1.3218   -0.9928   -2.5699 O.3       1 <0>        -0.3113
      7 C6         -1.0804   -2.2540   -3.1969 C.3       1 <0>         0.0225
      8 C7         -1.7250    1.4575   -1.1967 C.ar      1 <0>        -0.0642
      9 C8         -2.8192    0.6026   -1.1078 C.ar      1 <0>        -0.0599
     10 C9         -4.0494    1.0896   -0.7077 C.ar      1 <0>        -0.1740
     11 C10        -4.1839    2.4318   -0.3983 C.ar      1 <0>         0.2143
     12 C11        -3.0831    3.2924   -0.4783 C.ar      1 <0>        -0.1034
     13 C12        -1.8396    2.8081   -0.8831 C.ar      1 <0>        -0.0633
     14 C13        -0.6767    3.7503   -0.9740 C.3       1 <0>         0.1656
     15 H1         -0.9770    4.6150   -1.5658 H         1 <0>         0.1407
     16 O2          0.4848    3.1865   -1.5577 O.3       1 <0>        -0.3120
     17 C14        -0.3344    4.2193    0.4167 C.ar      1 <0>        -0.1005
     18 C15         0.7166    5.0959    0.6113 C.ar      1 <0>        -0.1032
     19 C16         1.0275    5.5298    1.8864 C.ar      1 <0>        -0.1216
     20 C17         0.2941    5.0790    2.9680 C.ar      1 <0>        -0.1164
     21 C18        -0.7535    4.1983    2.7739 C.ar      1 <0>        -0.1193
     22 C19        -1.0678    3.7685    1.4982 C.ar      1 <0>        -0.1032
     23 C20        -3.2722    4.7249   -0.1599 C.2       1 <0>        -0.0529
     24 C21        -4.3570    5.1073    0.5020 C.2       1 <0>        -0.1758
     25 C22        -5.3948    4.1073    0.9374 C.3       1 <0>         0.2167
     26 N1         -5.4083    2.9649    0.0148 N.pl3     1 <0>        -0.7432
     27 C23        -6.7721    4.7736    0.9411 C.3       1 <0>        -0.1521
     28 C24        -5.0665    3.6165    2.3489 C.3       1 <0>        -0.1573
     29 C25        -2.2391    5.7413   -0.5730 C.3       1 <0>        -0.1611
     30 H2          2.3536   -0.5963   -1.4800 H         1 <0>         0.0605
     31 H3          2.9436   -0.1232    0.1313 H         1 <0>         0.0687
     32 H4          1.2068   -0.4104   -0.1315 H         1 <0>         0.0643
     33 H5          2.7673    2.1117   -0.8585 H         1 <0>         0.1230
     34 H6          0.7549   -0.6374   -2.4255 H         1 <0>         0.1363
     35 H7         -0.5246   -2.0995   -4.1217 H         1 <0>         0.0558
     36 H8         -0.5007   -2.8881   -2.5262 H         1 <0>         0.0557
     37 H9         -2.0319   -2.7363   -3.4210 H         1 <0>         0.1003
     38 H10        -2.7072   -0.4433   -1.3524 H         1 <0>         0.1434
     39 H11        -4.8997    0.4274   -0.6374 H         1 <0>         0.1254
     40 H12         1.2924    5.4446   -0.2332 H         1 <0>         0.1266
     41 H13         1.8463    6.2176    2.0381 H         1 <0>         0.1232
     42 H14         0.5399    5.4146    3.9647 H         1 <0>         0.1207
     43 H15        -1.3263    3.8458    3.6189 H         1 <0>         0.1193
     44 H16        -1.8861    3.0802    1.3466 H         1 <0>         0.1281
     45 H17        -4.4979    6.1532    0.7318 H         1 <0>         0.1207
     46 H18        -6.2456    2.5899   -0.3002 H         1 <0>         0.4018
     47 H19        -7.5234    4.0531    1.2647 H         1 <0>         0.0626
     48 H20        -6.7636    5.6218    1.6256 H         1 <0>         0.0733
     49 H21        -7.0106    5.1204   -0.0643 H         1 <0>         0.0626
     50 H22        -4.0875    3.1373    2.3484 H         1 <0>         0.0562
     51 H23        -5.0561    4.4635    3.0349 H         1 <0>         0.0649
     52 H24        -5.8220    2.8990    2.6690 H         1 <0>         0.0588
     53 H25        -2.6029    6.7429   -0.3439 H         1 <0>         0.0651
     54 H26        -1.3120    5.5583   -0.0299 H         1 <0>         0.1092
     55 H27        -2.0553    5.6577   -1.6442 H         1 <0>         0.0715
@<TRIPOS>BOND
     1    1    2 1
     2    1   30 1
     3    1   31 1
     4    1   32 1
     5    2    3 2
     6    2   33 1
     7    3   16 1
     8    3    4 1
     9    4    5 2
    10    4    8 1
    11    5    6 1
    12    5   34 1
    13    6    7 1
    14    7   35 1
    15    7   36 1
    16    7   37 1
    17    8   13 ar
    18    8    9 ar
    19    9   10 ar
    20    9   38 1
    21   10   11 ar
    22   10   39 1
    23   11   26 1
    24   11   12 ar
    25   12   13 ar
    26   12   23 1
    27   13   14 1
    28   14   15 1
    29   14   16 1
    30   14   17 1
    31   17   22 ar
    32   17   18 ar
    33   18   19 ar
    34   18   40 1
    35   19   20 ar
    36   19   41 1
    37   20   21 ar
    38   20   42 1
    39   21   22 ar
    40   21   43 1
    41   22   44 1
    42   23   24 2
    43   23   29 1
    44   24   25 1
    45   24   45 1
    46   25   26 1
    47   25   27 1
    48   25   28 1
    49   26   46 1
    50   27   47 1
    51   27   48 1
    52   27   49 1
    53   28   50 1
    54   28   51 1
    55   28   52 1
    56   29   53 1
    57   29   54 1
    58   29   55 1
@<TRIPOS>MOLECULE
ZINC03831938
   55    58     0     0     0
SMALL
USER_CHARGES

@<TRIPOS>ATOM
      1 C1         -0.3519    8.2184   -2.9203 C.3       1 <0>        -0.1149
      2 C2          0.0411    6.7640   -2.8828 C.2       1 <0>        -0.1853
      3 C3          0.1689    6.1376   -1.7121 C.2       1 <0>         0.1103
      4 C4         -0.0430    6.8309   -0.4045 C.2       1 <0>        -0.1513
      5 C5          0.3708    8.0926   -0.1711 C.2       1 <0>         0.0742
      6 O1          0.2906    8.6113    1.0765 O.3       1 <0>        -0.3113
      7 C6          0.7470    9.9541    1.2514 C.3       1 <0>         0.0225
      8 C7         -0.7501    6.0095    0.6205 C.ar      1 <0>        -0.0589
      9 C8         -1.2883    6.6091    1.7548 C.ar      1 <0>        -0.0591
     10 C9         -1.9473    5.8449    2.6942 C.ar      1 <0>        -0.1696
     11 C10        -2.0564    4.4776    2.5092 C.ar      1 <0>         0.2150
     12 C11        -1.5092    3.8669    1.3717 C.ar      1 <0>        -0.1033
     13 C12        -0.8532    4.6365    0.4115 C.ar      1 <0>        -0.0716
     14 C13        -0.2865    3.9683   -0.8053 C.3       1 <0>         0.1683
     15 H1          0.3284    3.1276   -0.4841 H         1 <0>         0.1467
     16 O2          0.5020    4.8172   -1.6210 O.3       1 <0>        -0.3068
     17 C14        -1.4267    3.4331   -1.6326 C.ar      1 <0>        -0.0756
     18 C15        -1.1717    2.8122   -2.8409 C.ar      1 <0>        -0.0916
     19 C16        -2.2177    2.3156   -3.5982 C.ar      1 <0>        -0.0233
     20 C17        -3.5199    2.4510   -3.1515 C.ar      1 <0>        -0.1026
     21 C18        -3.7749    3.0775   -1.9448 C.ar      1 <0>        -0.0211
     22 C19        -2.7276    3.5683   -1.1855 C.ar      1 <0>        -0.0939
     23 Cl1        -5.4088    3.2485   -1.3837 Cl        1 <0>        -0.0543
     24 Cl2        -1.8966    1.5294   -5.1123 Cl        1 <0>        -0.0534
     25 C20        -1.6474    2.4053    1.2109 C.2       1 <0>        -0.0618
     26 C21        -2.5192    1.7421    1.9598 C.2       1 <0>        -0.1665
     27 C22        -3.3880    2.4575    2.9598 C.3       1 <0>         0.2156
     28 N1         -2.7067    3.6655    3.4427 N.pl3     1 <0>        -0.7424
     29 C23        -4.7090    2.8507    2.2954 C.3       1 <0>        -0.1584
     30 C24        -3.6710    1.5292    4.1426 C.3       1 <0>        -0.1523
     31 C25        -0.7984    1.6702    0.2060 C.3       1 <0>        -0.1575
     32 H2          0.5383    8.8382   -2.8138 H         1 <0>         0.0640
     33 H3         -0.8369    8.4393   -3.8711 H         1 <0>         0.0696
     34 H4         -1.0415    8.4296   -2.1030 H         1 <0>         0.0657
     35 H5          0.2194    6.2290   -3.8039 H         1 <0>         0.1243
     36 H6          0.7663    8.6895   -0.9796 H         1 <0>         0.1381
     37 H7          0.6275   10.2455    2.2949 H         1 <0>         0.1006
     38 H8          1.7991   10.0193    0.9742 H         1 <0>         0.0562
     39 H9          0.1625   10.6218    0.6185 H         1 <0>         0.0560
     40 H10        -1.1964    7.6760    1.8955 H         1 <0>         0.1437
     41 H11        -2.3654    6.3095    3.5749 H         1 <0>         0.1264
     42 H12        -0.1553    2.7108   -3.1918 H         1 <0>         0.1462
     43 H13        -4.3371    2.0680   -3.7447 H         1 <0>         0.1444
     44 H14        -2.9266    4.0575   -0.2434 H         1 <0>         0.1489
     45 H15        -2.6067    0.6713    1.8505 H         1 <0>         0.1223
     46 H16        -2.7076    3.8938    4.3855 H         1 <0>         0.4026
     47 H17        -5.2201    1.9542    1.9444 H         1 <0>         0.0651
     48 H18        -5.3392    3.3688    3.0183 H         1 <0>         0.0590
     49 H19        -4.5087    3.5091    1.4502 H         1 <0>         0.0589
     50 H20        -2.7305    1.2453    4.6148 H         1 <0>         0.0629
     51 H21        -4.3000    2.0459    4.8675 H         1 <0>         0.0632
     52 H22        -4.1840    0.6352    3.7883 H         1 <0>         0.0736
     53 H23        -0.9526    0.5968    0.3162 H         1 <0>         0.0684
     54 H24         0.2521    1.9058    0.3763 H         1 <0>         0.0747
     55 H25        -1.0808    1.9762   -0.8013 H         1 <0>         0.0994
@<TRIPOS>BOND
     1    1    2 1
     2    1   32 1
     3    1   33 1
     4    1   34 1
     5    2    3 2
     6    2   35 1
     7    3   16 1
     8    3    4 1
     9    4    5 2
    10    4    8 1
    11    5    6 1
    12    5   36 1
    13    6    7 1
    14    7   37 1
    15    7   38 1
    16    7   39 1
    17    8   13 ar
    18    8    9 ar
    19    9   10 ar
    20    9   40 1
    21   10   11 ar
    22   10   41 1
    23   11   28 1
    24   11   12 ar
    25   12   13 ar
    26   12   25 1
    27   13   14 1
    28   14   15 1
    29   14   16 1
    30   14   17 1
    31   17   22 ar
    32   17   18 ar
    33   18   19 ar
    34   18   42 1
    35   19   20 ar
    36   19   24 1
    37   20   21 ar
    38   20   43 1
    39   21   22 ar
    40   21   23 1
    41   22   44 1
    42   25   26 2
    43   25   31 1
    44   26   27 1
    45   26   45 1
    46   27   28 1
    47   27   29 1
    48   27   30 1
    49   28   46 1
    50   29   47 1
    51   29   48 1
    52   29   49 1
    53   30   50 1
    54   30   51 1
    55   30   52 1
    56   31   53 1
    57   31   54 1
    58   31   55 1
@<TRIPOS>MOLECULE
ZINC03831939
   50    54     0     0     0
SMALL
USER_CHARGES

@<TRIPOS>ATOM
      1 C1          4.9263    1.8653   -0.9400 C.3       1 <0>        -0.1270
      2 C2          3.5878    2.3001   -0.4034 C.2       1 <0>        -0.0562
      3 C3          3.4372    3.5877   -0.0975 C.2       1 <0>        -0.1728
      4 C4          2.0778    4.1124    0.2863 C.3       1 <0>         0.2121
      5 N1          1.0756    3.3726   -0.4971 N.pl3     1 <0>        -0.7394
      6 C5          1.1665    1.9763   -0.5035 C.ar      1 <0>         0.2176
      7 C6          2.4367    1.3851   -0.3025 C.ar      1 <0>        -0.0802
      8 C7          2.5141    0.0116   -0.1218 C.ar      1 <0>        -0.0569
      9 C8          1.3717   -0.7621   -0.3511 C.ar      1 <0>        -0.0841
     10 C9          0.1409   -0.1715   -0.6191 C.ar      1 <0>        -0.0598
     11 C10         0.0338    1.2035   -0.6615 C.ar      1 <0>        -0.1720
     12 C11         1.4974   -2.2396   -0.3709 C.ar      1 <0>        -0.1045
     13 C12         0.4990   -3.0439   -0.9053 C.ar      1 <0>        -0.0664
     14 C13         0.6606   -4.4171   -0.9215 C.ar      1 <0>        -0.0663
     15 C14         1.8165   -4.9862   -0.4140 C.ar      1 <0>        -0.0727
     16 C15         2.8117   -4.1913    0.1214 C.ar      1 <0>        -0.1357
     17 C16         2.6562   -2.8132    0.1585 C.ar      1 <0>         0.1525
     18 O1          3.6034   -2.0309    0.7019 O.3       1 <0>        -0.3080
     19 C17         3.7546   -0.6524    0.4085 C.3       1 <0>         0.1934
     20 H1          4.5669   -0.5500   -0.3141 H         1 <0>         0.0979
     21 C18         4.1552    0.0296    1.6912 C.ar      1 <0>        -0.0859
     22 C19         5.3437    0.7323    1.7584 C.ar      1 <0>        -0.1004
     23 C20         5.7093    1.3612    2.9338 C.ar      1 <0>        -0.1206
     24 C21         4.8904    1.2804    4.0446 C.ar      1 <0>        -0.1091
     25 C22         3.7045    0.5732    3.9790 C.ar      1 <0>        -0.1211
     26 C23         3.3370   -0.0524    2.8024 C.ar      1 <0>        -0.0856
     27 Cl1        -0.5874   -5.4295   -1.5776 Cl        1 <0>        -0.0675
     28 C24         1.9896    5.6006   -0.0467 C.3       1 <0>        -0.1515
     29 C25         1.8355    3.8980    1.7774 C.3       1 <0>        -0.1549
     30 H2          4.9043    0.7955   -1.1477 H         1 <0>         0.0642
     31 H3          5.1434    2.4095   -1.8592 H         1 <0>         0.0721
     32 H4          5.6997    2.0763   -0.2015 H         1 <0>         0.0782
     33 H5          4.2850    4.2480   -0.1234 H         1 <0>         0.1234
     34 H6          0.3830    3.8339   -0.9866 H         1 <0>         0.4031
     35 H7         -0.7329   -0.7867   -0.7735 H         1 <0>         0.1305
     36 H8         -0.9267    1.6707   -0.8213 H         1 <0>         0.1298
     37 H9         -0.4005   -2.6016   -1.3065 H         1 <0>         0.1379
     38 H10         1.9407   -6.0587   -0.4379 H         1 <0>         0.1416
     39 H11         3.7138   -4.6391    0.5113 H         1 <0>         0.1431
     40 H12         5.9851    0.7927    0.8915 H         1 <0>         0.1279
     41 H13         6.6361    1.9134    2.9852 H         1 <0>         0.1243
     42 H14         5.1774    1.7694    4.9638 H         1 <0>         0.1224
     43 H15         3.0649    0.5097    4.8469 H         1 <0>         0.1223
     44 H16         2.4104   -0.6049    2.7511 H         1 <0>         0.1172
     45 H17         0.9935    5.9693    0.1980 H         1 <0>         0.0639
     46 H18         2.7323    6.1476    0.5341 H         1 <0>         0.0751
     47 H19         2.1801    5.7469   -1.1099 H         1 <0>         0.0634
     48 H20         1.9118    2.8356    2.0088 H         1 <0>         0.0598
     49 H21         2.5818    4.4491    2.3497 H         1 <0>         0.0662
     50 H22         0.8398    4.2562    2.0389 H         1 <0>         0.0586
@<TRIPOS>BOND
     1    1    2 1
     2    1   30 1
     3    1   31 1
     4    1   32 1
     5    2    7 1
     6    2    3 2
     7    3    4 1
     8    3   33 1
     9    4    5 1
    10    4   28 1
    11    4   29 1
    12    5    6 1
    13    5   34 1
    14    6   11 ar
    15    6    7 ar
    16    7    8 ar
    17    8   19 1
    18    8    9 ar
    19    9   10 ar
    20    9   12 1
    21   10   11 ar
    22   10   35 1
    23   11   36 1
    24   12   17 ar
    25   12   13 ar
    26   13   14 ar
    27   13   37 1
    28   14   15 ar
    29   14   27 1
    30   15   16 ar
    31   15   38 1
    32   16   17 ar
    33   16   39 1
    34   17   18 1
    35   18   19 1
    36   19   20 1
    37   19   21 1
    38   21   26 ar
    39   21   22 ar
    40   22   23 ar
    41   22   40 1
    42   23   24 ar
    43   23   41 1
    44   24   25 ar
    45   24   42 1
    46   25   26 ar
    47   25   43 1
    48   26   44 1
    49   28   45 1
    50   28   46 1
    51   28   47 1
    52   29   48 1
    53   29   49 1
    54   29   50 1
@<TRIPOS>MOLECULE
ZINC03831947
   72    76     0     0     0
SMALL
USER_CHARGES

@<TRIPOS>ATOM
      1 C1          2.8896   -4.0968   -2.6979 C.3       1 <0>        -0.1316
      2 C2          1.8116   -4.4652   -1.6766 C.3       1 <0>        -0.0389
      3 C3          2.3543   -4.2491   -0.2693 C.3       1 <0>        -0.0991
      4 C4          2.6420   -2.7584   -0.0515 C.3       1 <0>        -0.0085
      5 H1          3.3675   -2.4089   -0.7861 H         1 <0>         0.0943
      6 C5          1.3277   -2.0185   -0.2297 C.2       1 <0>        -0.0536
      7 C6          1.2723   -0.7286    0.0772 C.2       1 <0>        -0.1199
      8 C7          2.5087    0.0290    0.4981 C.3       1 <0>        -0.0740
      9 C8          2.5116    1.3931   -0.1981 C.3       1 <0>        -0.1579
     10 C9          1.1850    2.0759    0.0019 C.2       1 <0>         0.3868
     11 O1          1.1516    3.2798    0.1595 O.2       1 <0>        -0.4728
     12 C10        -0.0162    1.3450    0.0094 C.2       1 <0>        -0.2517
     13 C11         0.0021   -0.0041    0.0020 C.2       1 <0>         0.0276
     14 C12        -1.2659   -0.8188   -0.0687 C.3       1 <0>        -0.0954
     15 C13        -1.0490   -1.9447   -1.0779 C.3       1 <0>        -0.1128
     16 C14         0.1472   -2.8110   -0.7121 C.3       1 <0>        -0.0441
     17 H2         -0.1630   -3.4924    0.0801 H         1 <0>         0.0844
     18 C15         0.5518   -3.6359   -1.9360 C.3       1 <0>        -0.0696
     19 H3          0.7151   -2.9752   -2.7874 H         1 <0>         0.0780
     20 C16        -0.5780   -4.6352   -2.2646 C.3       1 <0>        -0.1187
     21 C17        -0.1146   -5.9585   -1.6053 C.3       1 <0>        -0.1492
     22 C18         1.4147   -5.9463   -1.8520 C.3       1 <0>         0.1410
     23 C19         2.1311   -6.8190   -0.8195 C.3       1 <0>        -0.1416
     24 C20         1.7213   -8.2802   -1.0145 C.3       1 <0>        -0.1256
     25 C21         2.4377   -9.1529    0.0180 C.3       1 <0>         0.0760
     26 O2          2.0549  -10.5176   -0.1641 O.3       1 <0>        -0.5764
     27 O3          1.7145   -6.3915   -3.1764 O.3       1 <0>        -0.5478
     28 C22         3.1718   -2.5358    1.3416 C.ar      1 <0>        -0.1296
     29 C23         2.4203   -2.9239    2.4356 C.ar      1 <0>        -0.0576
     30 C24         2.9054   -2.7265    3.7136 C.ar      1 <0>        -0.1963
     31 C25         4.1447   -2.1272    3.8995 C.ar      1 <0>         0.2154
     32 C26         4.8945   -1.7335    2.7984 C.ar      1 <0>        -0.1955
     33 C27         4.4059   -1.9389    1.5231 C.ar      1 <0>        -0.0652
     34 N1          4.6360   -1.9213    5.1907 N.pl3     1 <0>        -0.6387
     35 C28         5.9434   -1.2895    5.3849 C.3       1 <0>         0.0921
     36 C29         3.8438   -2.3372    6.3508 C.3       1 <0>         0.0925
     37 H4          3.1290   -3.0373   -2.6074 H         1 <0>         0.0512
     38 H5          3.7853   -4.6890   -2.5104 H         1 <0>         0.0538
     39 H6          2.5225   -4.3017   -3.7036 H         1 <0>         0.0663
     40 H7          1.6176   -4.5868    0.4596 H         1 <0>         0.0690
     41 H8          3.2756   -4.8181   -0.1444 H         1 <0>         0.0734
     42 H9          2.5003    0.1704    1.5789 H         1 <0>         0.0780
     43 H10         3.3972   -0.5326    0.2099 H         1 <0>         0.0929
     44 H11         3.2363    1.9632    0.1888 H         1 <0>         0.0831
     45 H12         2.6882    1.2546   -1.2647 H         1 <0>         0.0972
     46 H13        -0.9612    1.8678    0.0167 H         1 <0>         0.1332
     47 H14        -1.4879   -1.2406    0.9115 H         1 <0>         0.0874
     48 H15        -2.0922   -0.1867   -0.3941 H         1 <0>         0.0837
     49 H16        -0.8844   -1.5105   -2.0641 H         1 <0>         0.0688
     50 H17        -1.9424   -2.5684   -1.1096 H         1 <0>         0.0768
     51 H18        -1.5207   -4.3020   -1.8304 H         1 <0>         0.0700
     52 H19        -0.6760   -4.7597   -3.3430 H         1 <0>         0.0709
     53 H20        -0.5777   -6.8160   -2.0933 H         1 <0>         0.0702
     54 H21        -0.3336   -5.9555   -0.5376 H         1 <0>         0.0744
     55 H22         3.2093   -6.7238   -0.9487 H         1 <0>         0.0735
     56 H23         1.8554   -6.4951    0.1840 H         1 <0>         0.0787
     57 H24         0.6432   -8.3754   -0.8853 H         1 <0>         0.0718
     58 H25         1.9970   -8.6041   -2.0180 H         1 <0>         0.0699
     59 H26         3.5158   -9.0577   -0.1112 H         1 <0>         0.0453
     60 H27         2.1620   -8.8290    1.0216 H         1 <0>         0.0451
     61 H28         2.4719  -11.1294    0.4579 H         1 <0>         0.3815
     62 H29         1.4852   -7.3162   -3.3418 H         1 <0>         0.3730
     63 H30         1.4548   -3.3854    2.2905 H         1 <0>         0.1159
     64 H31         2.3199   -3.0338    4.5675 H         1 <0>         0.1197
     65 H32         5.8582   -1.2669    2.9395 H         1 <0>         0.1215
     66 H33         4.9885   -1.6334    0.6666 H         1 <0>         0.1207
     67 H34         5.8178   -0.2092    5.4569 H         1 <0>         0.0487
     68 H35         6.3955   -1.6648    6.3029 H         1 <0>         0.0663
     69 H36         6.5897   -1.5246    4.5392 H         1 <0>         0.0690
     70 H37         4.0973   -3.3640    6.6146 H         1 <0>         0.0481
     71 H38         4.0617   -1.6812    7.1935 H         1 <0>         0.0664
     72 H39         2.7831   -2.2758    6.1073 H         1 <0>         0.0685
@<TRIPOS>BOND
     1    1    2 1
     2    1   37 1
     3    1   38 1
     4    1   39 1
     5    2   18 1
     6    2   22 1
     7    2    3 1
     8    3    4 1
     9    3   40 1
    10    3   41 1
    11    4    5 1
    12    4    6 1
    13    4   28 1
    14    6   16 1
    15    6    7 2
    16    7   13 1
    17    7    8 1
    18    8    9 1
    19    8   42 1
    20    8   43 1
    21    9   10 1
    22    9   44 1
    23    9   45 1
    24   10   11 2
    25   10   12 1
    26   12   13 2
    27   12   46 1
    28   13   14 1
    29   14   15 1
    30   14   47 1
    31   14   48 1
    32   15   16 1
    33   15   49 1
    34   15   50 1
    35   16   17 1
    36   16   18 1
    37   18   19 1
    38   18   20 1
    39   20   21 1
    40   20   51 1
    41   20   52 1
    42   21   22 1
    43   21   53 1
    44   21   54 1
    45   22   23 1
    46   22   27 1
    47   23   24 1
    48   23   55 1
    49   23   56 1
    50   24   25 1
    51   24   57 1
    52   24   58 1
    53   25   26 1
    54   25   59 1
    55   25   60 1
    56   26   61 1
    57   27   62 1
    58   28   33 ar
    59   28   29 ar
    60   29   30 ar
    61   29   63 1
    62   30   31 ar
    63   30   64 1
    64   31   32 ar
    65   31   34 1
    66   32   33 ar
    67   32   65 1
    68   33   66 1
    69   34   35 1
    70   34   36 1
    71   35   67 1
    72   35   68 1
    73   35   69 1
    74   36   70 1
    75   36   71 1
    76   36   72 1
@<TRIPOS>MOLECULE
ZINC03832311
   37    39     0     0     0
SMALL
USER_CHARGES

@<TRIPOS>ATOM
      1 C1         -0.7818    5.2765    2.3790 C.3       1 <0>        -0.1184
      2 C2         -0.7356    3.7703    2.4027 C.2       1 <0>        -0.0646
      3 C3         -0.7591    3.0844    1.2671 C.2       1 <0>        -0.1702
      4 C4         -0.7288    1.5792    1.2668 C.3       1 <0>         0.2115
      5 N1         -0.0172    1.0918    2.4553 N.pl3     1 <0>        -0.7358
      6 C5         -0.2898    1.6949    3.6849 C.ar      1 <0>         0.2412
      7 C6         -0.6635    3.0501    3.6900 C.ar      1 <0>        -0.1120
      8 C7         -0.9513    3.6841    4.8910 C.ar      1 <0>        -0.0403
      9 C8         -0.8613    2.9673    6.0845 C.ar      1 <0>        -0.0854
     10 C9         -0.4843    1.6222    6.0686 C.ar      1 <0>        -0.0335
     11 C10        -0.2006    0.9918    4.8732 C.ar      1 <0>        -0.1779
     12 C11        -1.1651    3.6329    7.3692 C.2       1 <0>        -0.0242
     13 C12        -1.1430    3.1141    8.6361 C.2       1 <0>        -0.1931
     14 C13        -1.4644    3.9365    9.6943 C.2       1 <0>        -0.0314
     15 C14        -1.8023    5.2281    9.4491 C.2       1 <0>        -0.1810
     16 S1         -1.6641    5.3202    7.6717 S.3       1 <0>         0.1938
     17 N2         -2.1892    6.2937   10.4143 N.pl3     1 <0>         0.0747
     18 O1         -2.2314    6.0492   11.6067 O.2       1 <0>        -0.1444
     19 O2         -2.4636    7.4099   10.0114 O.3       1 <0>        -0.1505
     20 C15        -0.0127    1.0858    0.0080 C.3       1 <0>        -0.1534
     21 C16        -2.1623    1.0445    1.2783 C.3       1 <0>        -0.1589
     22 H1          0.2334    5.6704    2.3331 H         1 <0>         0.0733
     23 H2         -1.3406    5.6091    1.5042 H         1 <0>         0.0710
     24 H3         -1.2718    5.6392    3.2826 H         1 <0>         0.0669
     25 H4         -0.8001    3.6148    0.3272 H         1 <0>         0.1265
     26 H5          0.6264    0.3692    2.3878 H         1 <0>         0.4059
     27 H6         -1.2421    4.7241    4.9013 H         1 <0>         0.1301
     28 H7         -0.4144    1.0728    6.9957 H         1 <0>         0.1331
     29 H8          0.0903   -0.0483    4.8659 H         1 <0>         0.1347
     30 H9         -0.8759    2.0810    8.8032 H         1 <0>         0.1581
     31 H10        -1.4514    3.5572   10.7054 H         1 <0>         0.1605
     32 H11         0.0021   -0.0041    0.0020 H         1 <0>         0.0649
     33 H12         1.0099    1.4631    0.0003 H         1 <0>         0.0644
     34 H13        -0.5399    1.4469   -0.8751 H         1 <0>         0.0765
     35 H14        -2.1436   -0.0453    1.2736 H         1 <0>         0.0617
     36 H15        -2.6738    1.3952    2.1746 H         1 <0>         0.0576
     37 H16        -2.6908    1.4026    0.3947 H         1 <0>         0.0686
@<TRIPOS>BOND
     1    1    2 1
     2    1   22 1
     3    1   23 1
     4    1   24 1
     5    2    7 1
     6    2    3 2
     7    3    4 1
     8    3   25 1
     9    4    5 1
    10    4   20 1
    11    4   21 1
    12    5    6 1
    13    5   26 1
    14    6   11 ar
    15    6    7 ar
    16    7    8 ar
    17    8    9 ar
    18    8   27 1
    19    9   10 ar
    20    9   12 1
    21   10   11 ar
    22   10   28 1
    23   11   29 1
    24   12   16 1
    25   12   13 2
    26   13   14 1
    27   13   30 1
    28   14   15 2
    29   14   31 1
    30   15   16 1
    31   15   17 1
    32   17   18 2
    33   17   19 1
    34   20   32 1
    35   20   33 1
    36   20   34 1
    37   21   35 1
    38   21   36 1
    39   21   37 1
@<TRIPOS>MOLECULE
ZINC03832312
   36    38     0     0     0
SMALL
USER_CHARGES

@<TRIPOS>ATOM
      1 C1         -0.7797    5.2769    2.3777 C.3       1 <0>        -0.1163
      2 C2         -0.7334    3.7708    2.4023 C.2       1 <0>        -0.0622
      3 C3         -0.7591    3.0844    1.2671 C.2       1 <0>        -0.1757
      4 C4         -0.7288    1.5792    1.2668 C.3       1 <0>         0.2146
      5 N1         -0.0171    1.0918    2.4554 N.pl3     1 <0>        -0.7424
      6 C5         -0.2896    1.6958    3.6852 C.ar      1 <0>         0.2202
      7 C6         -0.6588    3.0518    3.6900 C.ar      1 <0>        -0.1121
      8 C7         -0.9427    3.6872    4.8919 C.ar      1 <0>        -0.0561
      9 C8         -0.8555    2.9715    6.0833 C.ar      1 <0>        -0.0792
     10 C9         -0.4853    1.6272    6.0686 C.ar      1 <0>        -0.0652
     11 C10        -0.2041    0.9934    4.8734 C.ar      1 <0>        -0.1746
     12 C11        -1.1573    3.6419    7.3730 C.2       1 <0>        -0.0804
     13 C12        -1.0764    2.9481    8.5675 C.2       1 <0>        -0.0694
     14 C13        -1.3732    3.6449    9.7238 C.2       1 <0>        -0.1404
     15 S1         -1.7614    5.2695    9.0991 S.3       1 <0>         0.2058
     16 C14        -1.5190    4.9713    7.4091 C.2       1 <0>        -0.1916
     17 C15        -1.3699    3.1805   11.0784 C.1       1 <0>         0.2919
     18 N2         -1.3672    2.8120   12.1530 N.1       1 <0>        -0.3937
     19 C16        -0.0127    1.0858    0.0080 C.3       1 <0>        -0.1528
     20 C17        -2.1623    1.0445    1.2783 C.3       1 <0>        -0.1580
     21 H1          0.2354    5.6709    2.3295 H         1 <0>         0.0710
     22 H2         -1.3402    5.6089    1.5038 H         1 <0>         0.0678
     23 H3         -1.2679    5.6402    3.2820 H         1 <0>         0.0667
     24 H4         -0.8024    3.6146    0.3272 H         1 <0>         0.1225
     25 H5          0.6261    0.3688    2.3881 H         1 <0>         0.4025
     26 H6         -1.2286    4.7286    4.9025 H         1 <0>         0.1271
     27 H7         -0.4185    1.0783    6.9963 H         1 <0>         0.1256
     28 H8          0.0817   -0.0481    4.8671 H         1 <0>         0.1261
     29 H9         -0.7930    1.9064    8.5952 H         1 <0>         0.1498
     30 H10        -1.6268    5.6599    6.5841 H         1 <0>         0.1948
     31 H11         0.0021   -0.0041    0.0020 H         1 <0>         0.0634
     32 H12         1.0099    1.4631    0.0003 H         1 <0>         0.0631
     33 H13        -0.5399    1.4469   -0.8751 H         1 <0>         0.0743
     34 H14        -2.1436   -0.0453    1.2736 H         1 <0>         0.0597
     35 H15        -2.6738    1.3952    2.1746 H         1 <0>         0.0573
     36 H16        -2.6908    1.4026    0.3947 H         1 <0>         0.0658
@<TRIPOS>BOND
     1    1    2 1
     2    1   21 1
     3    1   22 1
     4    1   23 1
     5    2    7 1
     6    2    3 2
     7    3    4 1
     8    3   24 1
     9    4    5 1
    10    4   19 1
    11    4   20 1
    12    5    6 1
    13    5   25 1
    14    6   11 ar
    15    6    7 ar
    16    7    8 ar
    17    8    9 ar
    18    8   26 1
    19    9   10 ar
    20    9   12 1
    21   10   11 ar
    22   10   27 1
    23   11   28 1
    24   12   16 2
    25   12   13 1
    26   13   14 2
    27   13   29 1
    28   14   15 1
    29   14   17 1
    30   15   16 1
    31   16   30 1
    32   17   18 3
    33   19   31 1
    34   19   32 1
    35   19   33 1
    36   20   34 1
    37   20   35 1
    38   20   36 1
@<TRIPOS>MOLECULE
ZINC03832313
   41    43     0     0     0
SMALL
USER_CHARGES

@<TRIPOS>ATOM
      1 C1         -0.4073    4.4148    5.5634 C.3       1 <0>        -0.0969
      2 C2          0.2801    3.0939    5.7956 C.2       1 <0>        -0.1369
      3 C3          1.2023    2.9550    6.7956 C.2       1 <0>        -0.0646
      4 C4          1.8158    1.7226    6.9687 C.2       1 <0>        -0.1409
      5 S1          1.0564    0.7413    5.6853 S.3       1 <0>         0.1404
      6 C5         -0.0133    1.9969    5.0025 C.2       1 <0>        -0.0628
      7 C6         -0.9630    1.8940    3.8762 C.ar      1 <0>        -0.0806
      8 C7         -2.2587    2.4008    4.0043 C.ar      1 <0>        -0.0416
      9 C8         -3.1379    2.3033    2.9495 C.ar      1 <0>        -0.1910
     10 C9         -2.7400    1.7017    1.7580 C.ar      1 <0>         0.2397
     11 C10        -1.4596    1.1937    1.6244 C.ar      1 <0>        -0.1485
     12 C11        -0.5684    1.2910    2.6816 C.ar      1 <0>        -0.0478
     13 C12        -0.9969    0.5327    0.3524 C.3       1 <0>        -0.0441
     14 H1         -1.0479   -0.5498    0.4698 H         1 <0>         0.0815
     15 C13        -1.8832    0.9562   -0.8187 C.3       1 <0>        -0.1217
     16 C14        -3.3519    0.7379   -0.4323 C.3       1 <0>         0.1723
     17 N1         -3.6534    1.6201    0.7029 N.pl3     1 <0>        -0.7371
     18 C15        -4.2565    1.0883   -1.6155 C.3       1 <0>        -0.1544
     19 C16        -3.5699   -0.7215   -0.0281 C.3       1 <0>        -0.1623
     20 C17         0.4491    0.9427    0.0665 C.3       1 <0>        -0.1470
     21 C18         2.8048    1.3369    7.9300 C.1       1 <0>         0.2939
     22 N2          3.5893    1.0310    8.6925 N.1       1 <0>        -0.3988
     23 H2         -1.3634    4.4237    6.0869 H         1 <0>         0.0706
     24 H3          0.2206    5.2223    5.9399 H         1 <0>         0.0673
     25 H4         -0.5764    4.5537    4.4956 H         1 <0>         0.0716
     26 H5          1.4514    3.7890    7.4349 H         1 <0>         0.1453
     27 H6         -2.5695    2.8669    4.9277 H         1 <0>         0.1274
     28 H7         -4.1399    2.6944    3.0464 H         1 <0>         0.1259
     29 H8          0.4328    0.8985    2.5817 H         1 <0>         0.1270
     30 H9         -1.7166    2.0104   -1.0402 H         1 <0>         0.0716
     31 H10        -1.6427    0.3544   -1.6951 H         1 <0>         0.0777
     32 H11        -4.4736    2.1377    0.7202 H         1 <0>         0.4015
     33 H12        -4.0084    0.4506   -2.4639 H         1 <0>         0.0740
     34 H13        -5.2981    0.9314   -1.3354 H         1 <0>         0.0625
     35 H14        -4.1074    2.1326   -1.8900 H         1 <0>         0.0632
     36 H15        -2.9336   -0.9615    0.8238 H         1 <0>         0.0629
     37 H16        -4.6145   -0.8707    0.2452 H         1 <0>         0.0585
     38 H17        -3.3169   -1.3721   -0.8652 H         1 <0>         0.0660
     39 H18         0.5033    2.0250   -0.0514 H         1 <0>         0.0579
     40 H19         1.0849    0.6354    0.8968 H         1 <0>         0.0596
     41 H20         0.7893    0.4600   -0.8497 H         1 <0>         0.0589
@<TRIPOS>BOND
     1    1    2 1
     2    1   23 1
     3    1   24 1
     4    1   25 1
     5    2    6 2
     6    2    3 1
     7    3    4 2
     8    3   26 1
     9    4    5 1
    10    4   21 1
    11    5    6 1
    12    6    7 1
    13    7   12 ar
    14    7    8 ar
    15    8    9 ar
    16    8   27 1
    17    9   10 ar
    18    9   28 1
    19   10   17 1
    20   10   11 ar
    21   11   12 ar
    22   11   13 1
    23   12   29 1
    24   13   14 1
    25   13   15 1
    26   13   20 1
    27   15   16 1
    28   15   30 1
    29   15   31 1
    30   16   17 1
    31   16   18 1
    32   16   19 1
    33   17   32 1
    34   18   33 1
    35   18   34 1
    36   18   35 1
    37   19   36 1
    38   19   37 1
    39   19   38 1
    40   20   39 1
    41   20   40 1
    42   20   41 1
    43   21   22 3
@<TRIPOS>MOLECULE
ZINC03832314
   35    37     0     0     0
SMALL
USER_CHARGES

@<TRIPOS>ATOM
      1 C1         -0.7818    5.2765    2.3789 C.3       1 <0>        -0.1178
      2 C2         -0.7356    3.7704    2.4027 C.2       1 <0>        -0.0620
      3 C3         -0.7590    3.0844    1.2671 C.2       1 <0>        -0.1744
      4 C4         -0.7288    1.5792    1.2668 C.3       1 <0>         0.2137
      5 N1         -0.0172    1.0918    2.4553 N.pl3     1 <0>        -0.7398
      6 C5         -0.2898    1.6951    3.6852 C.ar      1 <0>         0.2276
      7 C6         -0.6635    3.0503    3.6900 C.ar      1 <0>        -0.1112
      8 C7         -0.9512    3.6845    4.8910 C.ar      1 <0>        -0.0511
      9 C8         -0.8612    2.9678    6.0846 C.ar      1 <0>        -0.0628
     10 C9         -0.4843    1.6228    6.0688 C.ar      1 <0>        -0.0476
     11 C10        -0.2008    0.9921    4.8734 C.ar      1 <0>        -0.1753
     12 C11        -1.1650    3.6335    7.3693 C.2       1 <0>        -0.0773
     13 C12        -1.1428    3.1147    8.6357 C.2       1 <0>        -0.1604
     14 C13        -1.4647    3.9369    9.6945 C.2       1 <0>        -0.1271
     15 C14        -1.8027    5.2295    9.4486 C.2       1 <0>        -0.1332
     16 S1         -1.6639    5.3209    7.6712 S.3       1 <0>         0.0995
     17 Cl1        -2.2541    6.4724   10.5734 Cl        1 <0>         0.0153
     18 C15        -0.0127    1.0858    0.0080 C.3       1 <0>        -0.1527
     19 C16        -2.1623    1.0445    1.2783 C.3       1 <0>        -0.1584
     20 H1          0.2335    5.6704    2.3329 H         1 <0>         0.0720
     21 H2         -1.3405    5.6091    1.5041 H         1 <0>         0.0692
     22 H3         -1.2717    5.6393    3.2824 H         1 <0>         0.0671
     23 H4         -0.8005    3.6148    0.3272 H         1 <0>         0.1241
     24 H5          0.6264    0.3691    2.3879 H         1 <0>         0.4037
     25 H6         -1.2421    4.7245    4.9012 H         1 <0>         0.1275
     26 H7         -0.4146    1.0732    6.9959 H         1 <0>         0.1290
     27 H8          0.0901   -0.0479    4.8661 H         1 <0>         0.1303
     28 H9         -0.8751    2.0818    8.8026 H         1 <0>         0.1422
     29 H10        -1.4519    3.5575   10.7055 H         1 <0>         0.1427
     30 H11         0.0021   -0.0041    0.0020 H         1 <0>         0.0638
     31 H12         1.0099    1.4631    0.0003 H         1 <0>         0.0635
     32 H13        -0.5399    1.4469   -0.8751 H         1 <0>         0.0750
     33 H14        -2.1436   -0.0453    1.2736 H         1 <0>         0.0604
     34 H15        -2.6738    1.3953    2.1746 H         1 <0>         0.0575
     35 H16        -2.6908    1.4026    0.3947 H         1 <0>         0.0667
@<TRIPOS>BOND
     1    1    2 1
     2    1   20 1
     3    1   21 1
     4    1   22 1
     5    2    7 1
     6    2    3 2
     7    3    4 1
     8    3   23 1
     9    4    5 1
    10    4   18 1
    11    4   19 1
    12    5    6 1
    13    5   24 1
    14    6   11 ar
    15    6    7 ar
    16    7    8 ar
    17    8    9 ar
    18    8   25 1
    19    9   10 ar
    20    9   12 1
    21   10   11 ar
    22   10   26 1
    23   11   27 1
    24   12   16 1
    25   12   13 2
    26   13   14 1
    27   13   28 1
    28   14   15 2
    29   14   29 1
    30   15   16 1
    31   15   17 1
    32   18   30 1
    33   18   31 1
    34   18   32 1
    35   19   33 1
    36   19   34 1
    37   19   35 1
@<TRIPOS>MOLECULE
ZINC03832315
   38    40     0     0     0
SMALL
USER_CHARGES

@<TRIPOS>ATOM
      1 C1         -2.7454    1.9290    8.2737 C.3       1 <0>        -0.0975
      2 C2         -1.9850    3.2257    8.3810 C.2       1 <0>        -0.1217
      3 C3         -2.2622    4.1210    9.3917 C.2       1 <0>        -0.1493
      4 C4         -1.5592    5.2800    9.4596 C.2       1 <0>        -0.1778
      5 S1         -0.4543    5.1299    8.0655 S.3       1 <0>         0.0380
      6 C5         -1.0059    3.5373    7.4763 C.2       1 <0>        -0.0967
      7 C6         -0.5257    2.7555    6.3169 C.ar      1 <0>        -0.0580
      8 C7         -0.2359    1.3966    6.4644 C.ar      1 <0>        -0.0486
      9 C8          0.2107    0.6582    5.3869 C.ar      1 <0>        -0.1775
     10 C9          0.3739    1.2662    4.1544 C.ar      1 <0>         0.2255
     11 C10         0.0887    2.6331    3.9958 C.ar      1 <0>        -0.1145
     12 C11        -0.3627    3.3762    5.0786 C.ar      1 <0>        -0.0481
     13 C12         0.2844    3.2488    2.6678 C.2       1 <0>        -0.0601
     14 C13         0.4173    2.4748    1.5983 C.2       1 <0>        -0.1771
     15 C14         0.3569    0.9747    1.7114 C.3       1 <0>         0.2146
     16 N1          0.8200    0.5531    3.0397 N.pl3     1 <0>        -0.7412
     17 C15         1.2507    0.3481    0.6393 C.3       1 <0>        -0.1525
     18 C16        -1.0860    0.5095    1.5052 C.3       1 <0>        -0.1580
     19 C17         0.3333    4.7485    2.5281 C.3       1 <0>        -0.1176
     20 H1         -2.1833    1.1363    8.7673 H         1 <0>         0.0675
     21 H2         -3.7182    2.0375    8.7534 H         1 <0>         0.0638
     22 H3         -2.8847    1.6755    7.2228 H         1 <0>         0.0677
     23 H4         -3.0288    3.9029   10.1205 H         1 <0>         0.1337
     24 H5         -1.6437    6.0844   10.1754 H         1 <0>         0.1854
     25 H6         -0.3624    0.9214    7.4260 H         1 <0>         0.1267
     26 H7          0.4325   -0.3922    5.5055 H         1 <0>         0.1282
     27 H8         -0.5854    4.4266    4.9629 H         1 <0>         0.1278
     28 H9          0.5718    2.9284    0.6305 H         1 <0>         0.1230
     29 H10         1.4210   -0.2017    3.1402 H         1 <0>         0.4029
     30 H11         1.2011   -0.7381    0.7143 H         1 <0>         0.0634
     31 H12         2.2797    0.6759    0.7871 H         1 <0>         0.0632
     32 H13         0.9082    0.6603   -0.3473 H         1 <0>         0.0744
     33 H14        -1.1320   -0.5768    1.5822 H         1 <0>         0.0598
     34 H15        -1.7240    0.9552    2.2684 H         1 <0>         0.0573
     35 H16        -1.4299    0.8187    0.5182 H         1 <0>         0.0659
     36 H17         1.3629    5.0900    2.6351 H         1 <0>         0.0714
     37 H18        -0.0442    5.0344    1.5464 H         1 <0>         0.0682
     38 H19        -0.2834    5.2058    3.3018 H         1 <0>         0.0675
@<TRIPOS>BOND
     1    1    2 1
     2    1   20 1
     3    1   21 1
     4    1   22 1
     5    2    6 2
     6    2    3 1
     7    3    4 2
     8    3   23 1
     9    4    5 1
    10    4   24 1
    11    5    6 1
    12    6    7 1
    13    7   12 ar
    14    7    8 ar
    15    8    9 ar
    16    8   25 1
    17    9   10 ar
    18    9   26 1
    19   10   16 1
    20   10   11 ar
    21   11   12 ar
    22   11   13 1
    23   12   27 1
    24   13   14 2
    25   13   19 1
    26   14   15 1
    27   14   28 1
    28   15   16 1
    29   15   17 1
    30   15   18 1
    31   16   29 1
    32   17   30 1
    33   17   31 1
    34   17   32 1
    35   18   33 1
    36   18   34 1
    37   18   35 1
    38   19   36 1
    39   19   37 1
    40   19   38 1
@<TRIPOS>MOLECULE
ZINC03832316
   39    41     0     0     0
SMALL
USER_CHARGES

@<TRIPOS>ATOM
      1 C1         -2.7585    1.9103    8.2746 C.3       1 <0>        -0.0982
      2 C2         -2.0030    3.2093    8.3877 C.2       1 <0>        -0.1327
      3 C3         -2.2843    4.0934    9.3923 C.2       1 <0>        -0.0659
      4 C4         -1.5635    5.2771    9.4584 C.2       1 <0>        -0.1380
      5 S1         -0.4586    5.1224    8.0648 S.3       1 <0>         0.1445
      6 C5         -1.0105    3.5298    7.4764 C.2       1 <0>        -0.0694
      7 C6         -0.5278    2.7506    6.3182 C.ar      1 <0>        -0.0709
      8 C7         -0.2376    1.3908    6.4644 C.ar      1 <0>        -0.0410
      9 C8          0.2110    0.6544    5.3872 C.ar      1 <0>        -0.1785
     10 C9          0.3762    1.2644    4.1553 C.ar      1 <0>         0.2322
     11 C10         0.0920    2.6323    3.9982 C.ar      1 <0>        -0.1150
     12 C11        -0.3620    3.3735    5.0804 C.ar      1 <0>        -0.0433
     13 C12         0.2902    3.2497    2.6713 C.2       1 <0>        -0.0615
     14 C13         0.4237    2.4767    1.6011 C.2       1 <0>        -0.1749
     15 C14         0.3613    0.9766    1.7130 C.3       1 <0>         0.2136
     16 N1          0.8225    0.5532    3.0413 N.pl3     1 <0>        -0.7389
     17 C15         1.2553    0.3498    0.6412 C.3       1 <0>        -0.1530
     18 C16        -1.0820    0.5134    1.5049 C.3       1 <0>        -0.1582
     19 C17         0.3411    4.7495    2.5336 C.3       1 <0>        -0.1180
     20 C18        -1.6737    6.3460   10.4050 C.1       1 <0>         0.2932
     21 N2         -1.7610    7.1939   11.1560 N.1       1 <0>        -0.3971
     22 H1         -2.1951    1.1182    8.7680 H         1 <0>         0.0716
     23 H2         -3.7331    2.0141    8.7515 H         1 <0>         0.0682
     24 H3         -2.8936    1.6590    7.2226 H         1 <0>         0.0719
     25 H4         -3.0518    3.8745   10.1198 H         1 <0>         0.1461
     26 H5         -0.3656    0.9143    7.4251 H         1 <0>         0.1299
     27 H6          0.4334   -0.3959    5.5049 H         1 <0>         0.1302
     28 H7         -0.5848    4.4240    4.9655 H         1 <0>         0.1298
     29 H8          0.5796    2.9311    0.6339 H         1 <0>         0.1238
     30 H9          1.4228   -0.2021    3.1416 H         1 <0>         0.4039
     31 H10         1.2041   -0.7365    0.7152 H         1 <0>         0.0639
     32 H11         2.2846    0.6760    0.7903 H         1 <0>         0.0636
     33 H12         0.9141    0.6632   -0.3454 H         1 <0>         0.0750
     34 H13        -1.1295   -0.5729    1.5809 H         1 <0>         0.0604
     35 H14        -1.7202    0.9593    2.2679 H         1 <0>         0.0578
     36 H15        -1.4246    0.8239    0.5179 H         1 <0>         0.0667
     37 H16         1.3710    5.0897    2.6423 H         1 <0>         0.0718
     38 H17        -0.0347    5.0372    1.5517 H         1 <0>         0.0688
     39 H18        -0.2761    5.2066    3.3070 H         1 <0>         0.0677
@<TRIPOS>BOND
     1    1    2 1
     2    1   22 1
     3    1   23 1
     4    1   24 1
     5    2    6 2
     6    2    3 1
     7    3    4 2
     8    3   25 1
     9    4    5 1
    10    4   20 1
    11    5    6 1
    12    6    7 1
    13    7   12 ar
    14    7    8 ar
    15    8    9 ar
    16    8   26 1
    17    9   10 ar
    18    9   27 1
    19   10   16 1
    20   10   11 ar
    21   11   12 ar
    22   11   13 1
    23   12   28 1
    24   13   14 2
    25   13   19 1
    26   14   15 1
    27   14   29 1
    28   15   16 1
    29   15   17 1
    30   15   18 1
    31   16   30 1
    32   17   31 1
    33   17   32 1
    34   17   33 1
    35   18   34 1
    36   18   35 1
    37   18   36 1
    38   19   37 1
    39   19   38 1
    40   19   39 1
    41   20   21 3
@<TRIPOS>MOLECULE
ZINC03832317
   39    41     0     0     0
SMALL
USER_CHARGES

@<TRIPOS>ATOM
      1 C1         -2.7903    1.7770    8.1551 C.3       1 <0>        -0.0767
      2 C2         -2.0308    3.0730    8.2759 C.2       1 <0>        -0.1432
      3 C3         -1.1576    3.6409    7.3735 C.2       1 <0>        -0.0968
      4 C4         -0.5730    4.8531    7.6953 C.2       1 <0>        -0.0570
      5 C5         -0.9063    5.4108    8.9153 C.2       1 <0>        -0.1490
      6 S1         -2.0412    4.2091    9.5847 S.3       1 <0>         0.1963
      7 C6         -0.4549    6.6402    9.4945 C.1       1 <0>         0.2935
      8 N1         -0.0968    7.6155    9.9539 N.1       1 <0>        -0.3973
      9 C7         -0.8559    2.9708    6.0835 C.ar      1 <0>        -0.0792
     10 C8         -0.4835    1.6266    6.0688 C.ar      1 <0>        -0.0593
     11 C9         -0.2019    0.9935    4.8738 C.ar      1 <0>        -0.1773
     12 C10        -0.2894    1.6958    3.6852 C.ar      1 <0>         0.2203
     13 C11        -0.6608    3.0508    3.6901 C.ar      1 <0>        -0.1136
     14 C12        -0.9452    3.6860    4.8925 C.ar      1 <0>        -0.0543
     15 C13        -0.7342    3.7705    2.4027 C.2       1 <0>        -0.0609
     16 C14        -0.7589    3.0844    1.2672 C.2       1 <0>        -0.1775
     17 C15        -0.7288    1.5792    1.2668 C.3       1 <0>         0.2152
     18 N2         -0.0172    1.0918    2.4554 N.pl3     1 <0>        -0.7428
     19 C16        -0.0127    1.0858    0.0080 C.3       1 <0>        -0.1527
     20 C17        -2.1623    1.0446    1.2782 C.3       1 <0>        -0.1575
     21 C18        -0.7803    5.2766    2.3787 C.3       1 <0>        -0.1173
     22 H1         -2.1916    0.9652    8.5682 H         1 <0>         0.0854
     23 H2         -3.7283    1.8530    8.7051 H         1 <0>         0.0783
     24 H3         -3.0003    1.5755    7.1047 H         1 <0>         0.0882
     25 H4          0.1149    5.3426    7.0218 H         1 <0>         0.1475
     26 H5         -0.4153    1.0779    6.9965 H         1 <0>         0.1242
     27 H6          0.0855   -0.0475    4.8675 H         1 <0>         0.1252
     28 H7         -1.2330    4.7269    4.9032 H         1 <0>         0.1264
     29 H8         -0.8013    3.6148    0.3274 H         1 <0>         0.1219
     30 H9          0.6260    0.3688    2.3881 H         1 <0>         0.4021
     31 H10         0.0021   -0.0041    0.0020 H         1 <0>         0.0632
     32 H11         1.0099    1.4631    0.0003 H         1 <0>         0.0629
     33 H12        -0.5399    1.4469   -0.8751 H         1 <0>         0.0741
     34 H13        -2.1437   -0.0453    1.2735 H         1 <0>         0.0595
     35 H14        -2.6738    1.3953    2.1746 H         1 <0>         0.0571
     36 H15        -2.6908    1.4027    0.3947 H         1 <0>         0.0654
     37 H16         0.2350    5.6704    2.3316 H         1 <0>         0.0706
     38 H17        -1.3399    5.6090    1.5044 H         1 <0>         0.0675
     39 H18        -1.2692    5.6396    3.2827 H         1 <0>         0.0675
@<TRIPOS>BOND
     1    1    2 1
     2    1   22 1
     3    1   23 1
     4    1   24 1
     5    2    6 1
     6    2    3 2
     7    3    4 1
     8    3    9 1
     9    4    5 2
    10    4   25 1
    11    5    6 1
    12    5    7 1
    13    7    8 3
    14    9   14 ar
    15    9   10 ar
    16   10   11 ar
    17   10   26 1
    18   11   12 ar
    19   11   27 1
    20   12   18 1
    21   12   13 ar
    22   13   14 ar
    23   13   15 1
    24   14   28 1
    25   15   16 2
    26   15   21 1
    27   16   17 1
    28   16   29 1
    29   17   18 1
    30   17   19 1
    31   17   20 1
    32   18   30 1
    33   19   31 1
    34   19   32 1
    35   19   33 1
    36   20   34 1
    37   20   35 1
    38   20   36 1
    39   21   37 1
    40   21   38 1
    41   21   39 1
@<TRIPOS>MOLECULE
ZINC03832318
   35    37     0     0     0
SMALL
USER_CHARGES

@<TRIPOS>ATOM
      1 C1         -0.7828    5.2764    2.3789 C.3       1 <0>        -0.1179
      2 C2         -0.7356    3.7704    2.4027 C.2       1 <0>        -0.0620
      3 C3         -0.7590    3.0844    1.2671 C.2       1 <0>        -0.1743
      4 C4         -0.7288    1.5792    1.2668 C.3       1 <0>         0.2135
      5 N1         -0.0172    1.0918    2.4553 N.pl3     1 <0>        -0.7395
      6 C5         -0.2898    1.6951    3.6851 C.ar      1 <0>         0.2290
      7 C6         -0.6635    3.0502    3.6900 C.ar      1 <0>        -0.1116
      8 C7         -0.9511    3.6844    4.8910 C.ar      1 <0>        -0.0496
      9 C8         -0.8610    2.9678    6.0846 C.ar      1 <0>        -0.0659
     10 C9         -0.4836    1.6229    6.0688 C.ar      1 <0>        -0.0460
     11 C10        -0.2006    0.9921    4.8734 C.ar      1 <0>        -0.1758
     12 C11        -1.1653    3.6334    7.3692 C.2       1 <0>        -0.0690
     13 C12        -1.1430    3.1146    8.6358 C.2       1 <0>        -0.1697
     14 C13        -1.4653    3.9367    9.6943 C.2       1 <0>        -0.0985
     15 C14        -1.8037    5.2289    9.4486 C.2       1 <0>        -0.1910
     16 S1         -1.6647    5.3206    7.6712 S.3       1 <0>         0.1067
     17 Br1        -2.2955    6.5826   10.6740 Br        1 <0>         0.0368
     18 C15        -0.0127    1.0858    0.0080 C.3       1 <0>        -0.1527
     19 C16        -2.1623    1.0445    1.2783 C.3       1 <0>        -0.1584
     20 H1          0.2323    5.6711    2.3334 H         1 <0>         0.0721
     21 H2         -1.3414    5.6087    1.5039 H         1 <0>         0.0693
     22 H3         -1.2733    5.6389    3.2823 H         1 <0>         0.0671
     23 H4         -0.8001    3.6148    0.3272 H         1 <0>         0.1243
     24 H5          0.6264    0.3691    2.3879 H         1 <0>         0.4039
     25 H6         -1.2420    4.7245    4.9013 H         1 <0>         0.1277
     26 H7         -0.4133    1.0736    6.9960 H         1 <0>         0.1293
     27 H8          0.0905   -0.0478    4.8661 H         1 <0>         0.1306
     28 H9         -0.8754    2.0817    8.8028 H         1 <0>         0.1419
     29 H10        -1.4529    3.5571   10.7054 H         1 <0>         0.1420
     30 H11         0.0021   -0.0041    0.0020 H         1 <0>         0.0639
     31 H12         1.0099    1.4631    0.0003 H         1 <0>         0.0636
     32 H13        -0.5399    1.4469   -0.8751 H         1 <0>         0.0751
     33 H14        -2.1436   -0.0453    1.2736 H         1 <0>         0.0605
     34 H15        -2.6738    1.3953    2.1746 H         1 <0>         0.0575
     35 H16        -2.6908    1.4026    0.3947 H         1 <0>         0.0668
@<TRIPOS>BOND
     1    1    2 1
     2    1   20 1
     3    1   21 1
     4    1   22 1
     5    2    7 1
     6    2    3 2
     7    3    4 1
     8    3   23 1
     9    4    5 1
    10    4   18 1
    11    4   19 1
    12    5    6 1
    13    5   24 1
    14    6   11 ar
    15    6    7 ar
    16    7    8 ar
    17    8    9 ar
    18    8   25 1
    19    9   10 ar
    20    9   12 1
    21   10   11 ar
    22   10   26 1
    23   11   27 1
    24   12   16 1
    25   12   13 2
    26   13   14 1
    27   13   28 1
    28   14   15 2
    29   14   29 1
    30   15   16 1
    31   15   17 1
    32   18   30 1
    33   18   31 1
    34   18   32 1
    35   19   33 1
    36   19   34 1
    37   19   35 1
@<TRIPOS>MOLECULE
ZINC03832319
   35    37     0     0     0
SMALL
USER_CHARGES

@<TRIPOS>ATOM
      1 C1         -0.7818    5.2764    2.3790 C.3       1 <0>        -0.1176
      2 C2         -0.7356    3.7703    2.4027 C.2       1 <0>        -0.0620
      3 C3         -0.7590    3.0844    1.2671 C.2       1 <0>        -0.1743
      4 C4         -0.7288    1.5792    1.2668 C.3       1 <0>         0.2136
      5 N1         -0.0172    1.0918    2.4553 N.pl3     1 <0>        -0.7397
      6 C5         -0.2898    1.6950    3.6850 C.ar      1 <0>         0.2282
      7 C6         -0.6635    3.0501    3.6900 C.ar      1 <0>        -0.1114
      8 C7         -0.9512    3.6842    4.8910 C.ar      1 <0>        -0.0502
      9 C8         -0.8612    2.9675    6.0845 C.ar      1 <0>        -0.0631
     10 C9         -0.4838    1.6226    6.0687 C.ar      1 <0>        -0.0474
     11 C10        -0.2006    0.9920    4.8733 C.ar      1 <0>        -0.1750
     12 C11        -1.1655    3.6330    7.3692 C.2       1 <0>        -0.0740
     13 C12        -1.1380    3.1156    8.6365 C.2       1 <0>        -0.1533
     14 C13        -1.4645    3.9371    9.6946 C.2       1 <0>        -0.1105
     15 C14        -1.8020    5.2290    9.4490 C.2       1 <0>        -0.1539
     16 S1         -1.6569    5.3225    7.6722 S.3       1 <0>         0.0886
     17 Br1        -1.4418    3.2731   11.4651 Br        1 <0>        -0.0364
     18 C15        -0.0127    1.0858    0.0080 C.3       1 <0>        -0.1527
     19 C16        -2.1623    1.0445    1.2783 C.3       1 <0>        -0.1584
     20 H1          0.2335    5.6704    2.3330 H         1 <0>         0.0720
     21 H2         -1.3405    5.6091    1.5042 H         1 <0>         0.0692
     22 H3         -1.2717    5.6392    3.2826 H         1 <0>         0.0670
     23 H4         -0.8001    3.6148    0.3272 H         1 <0>         0.1242
     24 H5          0.6264    0.3692    2.3879 H         1 <0>         0.4038
     25 H6         -1.2421    4.7242    4.9013 H         1 <0>         0.1278
     26 H7         -0.4135    1.0733    6.9959 H         1 <0>         0.1285
     27 H8          0.0900   -0.0482    4.8659 H         1 <0>         0.1305
     28 H9         -0.8655    2.0841    8.8041 H         1 <0>         0.1432
     29 H10        -2.0821    6.0024   10.1488 H         1 <0>         0.1962
     30 H11         0.0021   -0.0041    0.0020 H         1 <0>         0.0639
     31 H12         1.0099    1.4631    0.0003 H         1 <0>         0.0636
     32 H13        -0.5399    1.4469   -0.8751 H         1 <0>         0.0751
     33 H14        -2.1436   -0.0453    1.2736 H         1 <0>         0.0605
     34 H15        -2.6738    1.3953    2.1746 H         1 <0>         0.0575
     35 H16        -2.6908    1.4026    0.3947 H         1 <0>         0.0667
@<TRIPOS>BOND
     1    1    2 1
     2    1   20 1
     3    1   21 1
     4    1   22 1
     5    2    7 1
     6    2    3 2
     7    3    4 1
     8    3   23 1
     9    4    5 1
    10    4   18 1
    11    4   19 1
    12    5    6 1
    13    5   24 1
    14    6   11 ar
    15    6    7 ar
    16    7    8 ar
    17    8    9 ar
    18    8   25 1
    19    9   10 ar
    20    9   12 1
    21   10   11 ar
    22   10   26 1
    23   11   27 1
    24   12   16 1
    25   12   13 2
    26   13   14 1
    27   13   28 1
    28   14   15 2
    29   14   17 1
    30   15   16 1
    31   15   29 1
    32   18   30 1
    33   18   31 1
    34   18   32 1
    35   19   33 1
    36   19   34 1
    37   19   35 1
@<TRIPOS>MOLECULE
ZINC03832320
   42    44     0     0     0
SMALL
USER_CHARGES

@<TRIPOS>ATOM
      1 C1         -3.1527    2.1337    7.6948 C.3       1 <0>        -0.1084
      2 C2         -2.2414    3.2490    8.1382 C.2       1 <0>        -0.0181
      3 C3         -2.4535    3.9234    9.3260 C.2       1 <0>        -0.1589
      4 S1         -1.1144    5.1010    9.3383 S.3       1 <0>         0.1897
      5 C4         -0.3613    4.6656    7.8392 C.2       1 <0>        -0.1367
      6 C5         -1.1574    3.6417    7.3731 C.2       1 <0>        -0.0985
      7 C6         -0.8553    2.9715    6.0833 C.ar      1 <0>        -0.0768
      8 C7         -0.4855    1.6266    6.0686 C.ar      1 <0>        -0.0580
      9 C8         -0.2041    0.9932    4.8737 C.ar      1 <0>        -0.1771
     10 C9         -0.2895    1.6959    3.6852 C.ar      1 <0>         0.2203
     11 C10        -0.6585    3.0515    3.6900 C.ar      1 <0>        -0.1144
     12 C11        -0.9425    3.6871    4.8924 C.ar      1 <0>        -0.0511
     13 C12        -0.7332    3.7707    2.4025 C.2       1 <0>        -0.0606
     14 C13        -0.7590    3.0844    1.2672 C.2       1 <0>        -0.1775
     15 C14        -0.7288    1.5792    1.2668 C.3       1 <0>         0.2155
     16 N1         -0.0171    1.0918    2.4554 N.pl3     1 <0>        -0.7432
     17 C15        -0.0127    1.0858    0.0080 C.3       1 <0>        -0.1526
     18 C16        -2.1623    1.0445    1.2782 C.3       1 <0>        -0.1579
     19 C17        -0.7794    5.2767    2.3781 C.3       1 <0>        -0.1167
     20 C18         0.8656    5.2630    7.1996 C.3       1 <0>        -0.0752
     21 C19        -3.4858    3.7268   10.2988 C.1       1 <0>         0.2964
     22 N2         -4.3047    3.5708   11.0705 N.1       1 <0>        -0.4006
     23 H1         -2.7792    1.1847    8.0795 H         1 <0>         0.0798
     24 H2         -4.1574    2.3111    8.0786 H         1 <0>         0.0680
     25 H3         -3.1807    2.0985    6.6058 H         1 <0>         0.0793
     26 H4         -0.4190    1.0775    6.9962 H         1 <0>         0.1228
     27 H5          0.0817   -0.0483    4.8674 H         1 <0>         0.1246
     28 H6         -1.2283    4.7285    4.9031 H         1 <0>         0.1253
     29 H7         -0.8020    3.6147    0.3273 H         1 <0>         0.1216
     30 H8          0.6261    0.3688    2.3881 H         1 <0>         0.4020
     31 H9          0.0021   -0.0041    0.0020 H         1 <0>         0.0630
     32 H10         1.0099    1.4631    0.0003 H         1 <0>         0.0629
     33 H11        -0.5399    1.4469   -0.8751 H         1 <0>         0.0739
     34 H12        -2.1436   -0.0453    1.2736 H         1 <0>         0.0594
     35 H13        -2.6738    1.3953    2.1746 H         1 <0>         0.0571
     36 H14        -2.6908    1.4027    0.3947 H         1 <0>         0.0653
     37 H15         0.2358    5.6707    2.3299 H         1 <0>         0.0706
     38 H16        -1.3399    5.6089    1.5042 H         1 <0>         0.0670
     39 H17        -1.2675    5.6400    3.2825 H         1 <0>         0.0673
     40 H18         0.5721    6.0895    6.5525 H         1 <0>         0.0850
     41 H19         1.5376    5.6299    7.9754 H         1 <0>         0.0783
     42 H20         1.3744    4.5016    6.6085 H         1 <0>         0.0872
@<TRIPOS>BOND
     1    1    2 1
     2    1   23 1
     3    1   24 1
     4    1   25 1
     5    2    6 1
     6    2    3 2
     7    3    4 1
     8    3   21 1
     9    4    5 1
    10    5    6 2
    11    5   20 1
    12    6    7 1
    13    7   12 ar
    14    7    8 ar
    15    8    9 ar
    16    8   26 1
    17    9   10 ar
    18    9   27 1
    19   10   16 1
    20   10   11 ar
    21   11   12 ar
    22   11   13 1
    23   12   28 1
    24   13   14 2
    25   13   19 1
    26   14   15 1
    27   14   29 1
    28   15   16 1
    29   15   17 1
    30   15   18 1
    31   16   30 1
    32   17   31 1
    33   17   32 1
    34   17   33 1
    35   18   34 1
    36   18   35 1
    37   18   36 1
    38   19   37 1
    39   19   38 1
    40   19   39 1
    41   20   40 1
    42   20   41 1
    43   20   42 1
    44   21   22 3
@<TRIPOS>MOLECULE
ZINC03832321
   37    39     0     0     0
SMALL
USER_CHARGES

@<TRIPOS>ATOM
      1 C1         -0.7807    5.2768    2.3778 C.3       1 <0>        -0.1165
      2 C2         -0.7334    3.7708    2.4023 C.2       1 <0>        -0.0624
      3 C3         -0.7591    3.0844    1.2671 C.2       1 <0>        -0.1757
      4 C4         -0.7288    1.5792    1.2668 C.3       1 <0>         0.2147
      5 N1         -0.0171    1.0918    2.4554 N.pl3     1 <0>        -0.7424
      6 C5         -0.2896    1.6958    3.6851 C.ar      1 <0>         0.2189
      7 C6         -0.6588    3.0517    3.6899 C.ar      1 <0>        -0.1113
      8 C7         -0.9425    3.6872    4.8919 C.ar      1 <0>        -0.0584
      9 C8         -0.8551    2.9715    6.0832 C.ar      1 <0>        -0.0783
     10 C9         -0.4848    1.6272    6.0686 C.ar      1 <0>        -0.0670
     11 C10        -0.2041    0.9933    4.8733 C.ar      1 <0>        -0.1741
     12 C11        -1.1566    3.6420    7.3731 C.2       1 <0>        -0.0944
     13 C12        -1.0756    2.9499    8.5640 C.2       1 <0>        -0.0641
     14 C13        -1.3730    3.6502    9.7247 C.2       1 <0>        -0.2959
     15 S1         -1.7606    5.2745    9.0987 S.3       1 <0>         0.2033
     16 C14        -1.5191    4.9746    7.4089 C.2       1 <0>        -0.1909
     17 C15        -1.3696    3.1929   11.0614 C.2       1 <0>         0.4164
     18 O1         -1.6596    3.9522   11.9637 O.2       1 <0>        -0.4614
     19 C16        -0.0127    1.0858    0.0080 C.3       1 <0>        -0.1526
     20 C17        -2.1623    1.0445    1.2783 C.3       1 <0>        -0.1580
     21 H1          0.2342    5.6715    2.3300 H         1 <0>         0.0711
     22 H2         -1.3411    5.6085    1.5037 H         1 <0>         0.0681
     23 H3         -1.2695    5.6398    3.2819 H         1 <0>         0.0661
     24 H4         -0.8020    3.6146    0.3272 H         1 <0>         0.1227
     25 H5          0.6261    0.3689    2.3881 H         1 <0>         0.4024
     26 H6         -1.2284    4.7286    4.9026 H         1 <0>         0.1257
     27 H7         -0.4175    1.0785    6.9964 H         1 <0>         0.1253
     28 H8          0.0817   -0.0481    4.8671 H         1 <0>         0.1262
     29 H9         -0.7926    1.9080    8.5917 H         1 <0>         0.1493
     30 H10        -1.6269    5.6626    6.5834 H         1 <0>         0.1906
     31 H11        -1.1091    2.1680   11.2808 H         1 <0>         0.1187
     32 H12         0.0021   -0.0041    0.0020 H         1 <0>         0.0635
     33 H13         1.0099    1.4631    0.0003 H         1 <0>         0.0631
     34 H14        -0.5399    1.4469   -0.8751 H         1 <0>         0.0744
     35 H15        -2.1436   -0.0453    1.2736 H         1 <0>         0.0598
     36 H16        -2.6738    1.3952    2.1746 H         1 <0>         0.0570
     37 H17        -2.6908    1.4026    0.3947 H         1 <0>         0.0658
@<TRIPOS>BOND
     1    1    2 1
     2    1   21 1
     3    1   22 1
     4    1   23 1
     5    2    7 1
     6    2    3 2
     7    3    4 1
     8    3   24 1
     9    4    5 1
    10    4   19 1
    11    4   20 1
    12    5    6 1
    13    5   25 1
    14    6   11 ar
    15    6    7 ar
    16    7    8 ar
    17    8    9 ar
    18    8   26 1
    19    9   10 ar
    20    9   12 1
    21   10   11 ar
    22   10   27 1
    23   11   28 1
    24   12   16 2
    25   12   13 1
    26   13   14 2
    27   13   29 1
    28   14   15 1
    29   14   17 1
    30   15   16 1
    31   16   30 1
    32   17   18 2
    33   17   31 1
    34   19   32 1
    35   19   33 1
    36   19   34 1
    37   20   35 1
    38   20   36 1
    39   20   37 1
@<TRIPOS>MOLECULE
ZINC03832322
   36    38     0     0     0
SMALL
USER_CHARGES

@<TRIPOS>ATOM
      1 C1         -0.7821    5.2763    2.3796 C.3       1 <0>        -0.1180
      2 C2         -0.7359    3.7701    2.4028 C.2       1 <0>        -0.0626
      3 C3         -0.7592    3.0844    1.2670 C.2       1 <0>        -0.1735
      4 C4         -0.7288    1.5792    1.2668 C.3       1 <0>         0.2129
      5 N1         -0.0172    1.0918    2.4553 N.pl3     1 <0>        -0.7379
      6 C5         -0.2899    1.6935    3.6839 C.ar      1 <0>         0.2328
      7 C6         -0.6639    3.0492    3.6897 C.ar      1 <0>        -0.1126
      8 C7         -0.9519    3.6822    4.8905 C.ar      1 <0>        -0.0471
      9 C8         -0.8621    2.9643    6.0843 C.ar      1 <0>        -0.0715
     10 C9         -0.4847    1.6186    6.0675 C.ar      1 <0>        -0.0412
     11 C10        -0.2011    0.9893    4.8722 C.ar      1 <0>        -0.1773
     12 C11        -1.1660    3.6284    7.3682 C.2       1 <0>        -0.0594
     13 C12        -1.1427    3.0994    8.6480 C.2       1 <0>        -0.1780
     14 C13        -1.4617    3.9112    9.7013 C.2       1 <0>        -0.0638
     15 C14        -1.8061    5.2304    9.4445 C.2       1 <0>        -0.1452
     16 S1         -1.6649    5.3162    7.6669 S.3       1 <0>         0.1474
     17 C15        -2.1795    6.2591   10.3681 C.1       1 <0>         0.2937
     18 N2         -2.4757    7.0751   11.1009 N.1       1 <0>        -0.3986
     19 C16        -0.0127    1.0858    0.0080 C.3       1 <0>        -0.1530
     20 C17        -2.1623    1.0444    1.2783 C.3       1 <0>        -0.1585
     21 H1          0.2331    5.6703    2.3340 H         1 <0>         0.0724
     22 H2         -1.3408    5.6092    1.5049 H         1 <0>         0.0694
     23 H3         -1.2722    5.6386    3.2833 H         1 <0>         0.0673
     24 H4         -0.8005    3.6149    0.3272 H         1 <0>         0.1245
     25 H5          0.6268    0.3695    2.3876 H         1 <0>         0.4044
     26 H6         -1.2428    4.7222    4.9013 H         1 <0>         0.1286
     27 H7         -0.4150    1.0684    6.9942 H         1 <0>         0.1312
     28 H8          0.0897   -0.0508    4.8641 H         1 <0>         0.1313
     29 H9         -0.8747    2.0661    8.8114 H         1 <0>         0.1467
     30 H10        -1.4497    3.5318   10.7124 H         1 <0>         0.1465
     31 H11         0.0021   -0.0041    0.0020 H         1 <0>         0.0642
     32 H12         1.0099    1.4631    0.0003 H         1 <0>         0.0638
     33 H13        -0.5399    1.4469   -0.8751 H         1 <0>         0.0754
     34 H14        -2.1435   -0.0454    1.2736 H         1 <0>         0.0608
     35 H15        -2.6738    1.3952    2.1746 H         1 <0>         0.0579
     36 H16        -2.6907    1.4025    0.3947 H         1 <0>         0.0672
@<TRIPOS>BOND
     1    1    2 1
     2    1   21 1
     3    1   22 1
     4    1   23 1
     5    2    7 1
     6    2    3 2
     7    3    4 1
     8    3   24 1
     9    4    5 1
    10    4   19 1
    11    4   20 1
    12    5    6 1
    13    5   25 1
    14    6   11 ar
    15    6    7 ar
    16    7    8 ar
    17    8    9 ar
    18    8   26 1
    19    9   10 ar
    20    9   12 1
    21   10   11 ar
    22   10   27 1
    23   11   28 1
    24   12   16 1
    25   12   13 2
    26   13   14 1
    27   13   29 1
    28   14   15 2
    29   14   30 1
    30   15   16 1
    31   15   17 1
    32   17   18 3
    33   19   31 1
    34   19   32 1
    35   19   33 1
    36   20   34 1
    37   20   35 1
    38   20   36 1
@<TRIPOS>MOLECULE
ZINC03832323
   37    39     0     0     0
SMALL
USER_CHARGES

@<TRIPOS>ATOM
      1 C1         -0.7824    5.2761    2.3800 C.3       1 <0>        -0.1177
      2 C2         -0.7361    3.7700    2.4029 C.2       1 <0>        -0.0626
      3 C3         -0.7592    3.0844    1.2670 C.2       1 <0>        -0.1734
      4 C4         -0.7288    1.5792    1.2668 C.3       1 <0>         0.2126
      5 N1         -0.0172    1.0918    2.4552 N.pl3     1 <0>        -0.7371
      6 C5         -0.2899    1.6926    3.6832 C.ar      1 <0>         0.2346
      7 C6         -0.6642    3.0486    3.6896 C.ar      1 <0>        -0.1135
      8 C7         -0.9521    3.6810    4.8902 C.ar      1 <0>        -0.0448
      9 C8         -0.8623    2.9625    6.0841 C.ar      1 <0>        -0.0759
     10 C9         -0.4843    1.6165    6.0668 C.ar      1 <0>        -0.0400
     11 C10        -0.2010    0.9878    4.8716 C.ar      1 <0>        -0.1780
     12 C11        -1.1666    3.6256    7.3676 C.2       1 <0>        -0.0477
     13 C12        -1.1433    3.0945    8.6505 C.2       1 <0>        -0.1920
     14 C13        -1.4615    3.9020    9.7013 C.2       1 <0>        -0.0469
     15 C14        -1.8078    5.2268    9.4441 C.2       1 <0>        -0.2992
     16 S1         -1.6662    5.3132    7.6665 S.3       1 <0>         0.1221
     17 C15        -2.1759    6.2386   10.3536 C.2       1 <0>         0.4174
     18 O1         -2.2203    5.9989   11.5438 O.2       1 <0>        -0.4598
     19 C16        -0.0127    1.0858    0.0080 C.3       1 <0>        -0.1530
     20 C17        -2.1623    1.0444    1.2783 C.3       1 <0>        -0.1586
     21 H1          0.2329    5.6702    2.3345 H         1 <0>         0.0724
     22 H2         -1.3410    5.6093    1.5053 H         1 <0>         0.0698
     23 H3         -1.2725    5.6383    3.2838 H         1 <0>         0.0672
     24 H4         -0.8002    3.6149    0.3271 H         1 <0>         0.1251
     25 H5          0.6270    0.3698    2.3874 H         1 <0>         0.4047
     26 H6         -1.2431    4.7210    4.9014 H         1 <0>         0.1292
     27 H7         -0.4145    1.0660    6.9933 H         1 <0>         0.1304
     28 H8          0.0897   -0.0523    4.8631 H         1 <0>         0.1318
     29 H9         -0.8751    2.0610    8.8128 H         1 <0>         0.1424
     30 H10        -1.4491    3.5219   10.7121 H         1 <0>         0.1448
     31 H11        -2.4185    7.2271    9.9924 H         1 <0>         0.1059
     32 H12         0.0021   -0.0041    0.0020 H         1 <0>         0.0643
     33 H13         1.0099    1.4631    0.0003 H         1 <0>         0.0639
     34 H14        -0.5399    1.4469   -0.8751 H         1 <0>         0.0757
     35 H15        -2.1435   -0.0454    1.2736 H         1 <0>         0.0609
     36 H16        -2.6738    1.3951    2.1746 H         1 <0>         0.0577
     37 H17        -2.6907    1.4025    0.3947 H         1 <0>         0.0676
@<TRIPOS>BOND
     1    1    2 1
     2    1   21 1
     3    1   22 1
     4    1   23 1
     5    2    7 1
     6    2    3 2
     7    3    4 1
     8    3   24 1
     9    4    5 1
    10    4   19 1
    11    4   20 1
    12    5    6 1
    13    5   25 1
    14    6   11 ar
    15    6    7 ar
    16    7    8 ar
    17    8    9 ar
    18    8   26 1
    19    9   10 ar
    20    9   12 1
    21   10   11 ar
    22   10   27 1
    23   11   28 1
    24   12   16 1
    25   12   13 2
    26   13   14 1
    27   13   29 1
    28   14   15 2
    29   14   30 1
    30   15   16 1
    31   15   17 1
    32   17   18 2
    33   17   31 1
    34   19   32 1
    35   19   33 1
    36   19   34 1
    37   20   35 1
    38   20   36 1
    39   20   37 1
@<TRIPOS>MOLECULE
ZINC03832324
   36    38     0     0     0
SMALL
USER_CHARGES

@<TRIPOS>ATOM
      1 C1         -0.7830    5.2763    2.3795 C.3       1 <0>        -0.1164
      2 C2         -0.7357    3.7702    2.4028 C.2       1 <0>        -0.0611
      3 C3         -0.7591    3.0844    1.2670 C.2       1 <0>        -0.1761
      4 C4         -0.7288    1.5792    1.2668 C.3       1 <0>         0.2143
      5 N1         -0.0172    1.0918    2.4553 N.pl3     1 <0>        -0.7408
      6 C5         -0.2896    1.6941    3.6842 C.ar      1 <0>         0.2268
      7 C6         -0.6635    3.0495    3.6898 C.ar      1 <0>        -0.1158
      8 C7         -0.9512    3.6827    4.8909 C.ar      1 <0>        -0.0449
      9 C8         -0.8612    2.9657    6.0836 C.ar      1 <0>        -0.0987
     10 C9         -0.4843    1.6213    6.0677 C.ar      1 <0>        -0.0526
     11 C10        -0.2005    0.9908    4.8726 C.ar      1 <0>        -0.1770
     12 C11        -1.1656    3.6321    7.3706 C.2       1 <0>         0.0118
     13 C12        -0.5958    4.8470    7.7149 C.2       1 <0>        -0.1627
     14 C13        -0.9105    5.4109    8.9044 C.2       1 <0>        -0.1808
     15 S1         -2.0179    4.2800    9.6099 S.3       1 <0>         0.1918
     16 C14        -2.0475    3.0709    8.2988 C.2       1 <0>        -0.1434
     17 C15        -2.7819    1.8442    8.2187 C.1       1 <0>         0.2939
     18 N2         -3.3645    0.8710    8.1552 N.1       1 <0>        -0.3949
     19 C16        -0.0127    1.0858    0.0080 C.3       1 <0>        -0.1524
     20 C17        -2.1623    1.0445    1.2783 C.3       1 <0>        -0.1585
     21 H1          0.2320    5.6710    2.3340 H         1 <0>         0.0712
     22 H2         -1.3416    5.6088    1.5046 H         1 <0>         0.0678
     23 H3         -1.2735    5.6384    3.2830 H         1 <0>         0.0677
     24 H4         -0.8006    3.6149    0.3272 H         1 <0>         0.1231
     25 H5          0.6266    0.3693    2.3877 H         1 <0>         0.4029
     26 H6         -1.2429    4.7225    4.9017 H         1 <0>         0.1301
     27 H7         -0.4145    1.0719    6.9948 H         1 <0>         0.1213
     28 H8          0.0907   -0.0492    4.8653 H         1 <0>         0.1267
     29 H9          0.0911    5.3386    7.0420 H         1 <0>         0.1455
     30 H10        -0.5557    6.3441    9.3162 H         1 <0>         0.1963
     31 H11         0.0021   -0.0041    0.0020 H         1 <0>         0.0634
     32 H12         1.0099    1.4631    0.0003 H         1 <0>         0.0634
     33 H13        -0.5399    1.4469   -0.8751 H         1 <0>         0.0746
     34 H14        -2.1435   -0.0454    1.2736 H         1 <0>         0.0599
     35 H15        -2.6738    1.3952    2.1746 H         1 <0>         0.0570
     36 H16        -2.6907    1.4025    0.3947 H         1 <0>         0.0663
@<TRIPOS>BOND
     1    1    2 1
     2    1   21 1
     3    1   22 1
     4    1   23 1
     5    2    7 1
     6    2    3 2
     7    3    4 1
     8    3   24 1
     9    4    5 1
    10    4   19 1
    11    4   20 1
    12    5    6 1
    13    5   25 1
    14    6   11 ar
    15    6    7 ar
    16    7    8 ar
    17    8    9 ar
    18    8   26 1
    19    9   10 ar
    20    9   12 1
    21   10   11 ar
    22   10   27 1
    23   11   28 1
    24   12   16 2
    25   12   13 1
    26   13   14 2
    27   13   29 1
    28   14   15 1
    29   14   30 1
    30   15   16 1
    31   16   17 1
    32   17   18 3
    33   19   31 1
    34   19   32 1
    35   19   33 1
    36   20   34 1
    37   20   35 1
    38   20   36 1
@<TRIPOS>MOLECULE
ZINC03832325
   35    37     0     0     0
SMALL
USER_CHARGES

@<TRIPOS>ATOM
      1 C1         -0.7823    5.2764    2.3790 C.3       1 <0>        -0.1176
      2 C2         -0.7356    3.7703    2.4027 C.2       1 <0>        -0.0611
      3 C3         -0.7590    3.0844    1.2671 C.2       1 <0>        -0.1758
      4 C4         -0.7288    1.5792    1.2668 C.3       1 <0>         0.2141
      5 N1         -0.0172    1.0918    2.4553 N.pl3     1 <0>        -0.7406
      6 C5         -0.2898    1.6950    3.6850 C.ar      1 <0>         0.2243
      7 C6         -0.6635    3.0501    3.6900 C.ar      1 <0>        -0.1116
      8 C7         -0.9512    3.6842    4.8910 C.ar      1 <0>        -0.0530
      9 C8         -0.8612    2.9675    6.0845 C.ar      1 <0>        -0.0584
     10 C9         -0.4843    1.6225    6.0686 C.ar      1 <0>        -0.0515
     11 C10        -0.2006    0.9920    4.8733 C.ar      1 <0>        -0.1751
     12 C11        -1.1651    3.6332    7.3693 C.2       1 <0>        -0.0873
     13 C12        -1.1375    3.1160    8.6366 C.2       1 <0>        -0.1647
     14 C13        -1.4631    3.9374    9.6944 C.2       1 <0>        -0.1495
     15 C14        -1.7999    5.2291    9.4493 C.2       1 <0>        -0.1820
     16 S1         -1.6558    5.3228    7.6725 S.3       1 <0>         0.0434
     17 C15        -0.0127    1.0858    0.0080 C.3       1 <0>        -0.1524
     18 C16        -2.1623    1.0445    1.2783 C.3       1 <0>        -0.1583
     19 H1          0.2329    5.6707    2.3332 H         1 <0>         0.0717
     20 H2         -1.3410    5.6089    1.5041 H         1 <0>         0.0688
     21 H3         -1.2725    5.6390    3.2825 H         1 <0>         0.0673
     22 H4         -0.8001    3.6148    0.3272 H         1 <0>         0.1236
     23 H5          0.6264    0.3692    2.3879 H         1 <0>         0.4031
     24 H6         -1.2427    4.7240    4.9013 H         1 <0>         0.1274
     25 H7         -0.4147    1.0730    6.9958 H         1 <0>         0.1275
     26 H8          0.0900   -0.0482    4.8659 H         1 <0>         0.1291
     27 H9         -0.8655    2.0843    8.8042 H         1 <0>         0.1333
     28 H10        -1.4507    3.5579   10.7055 H         1 <0>         0.1343
     29 H11        -2.0793    6.0025   10.1495 H         1 <0>         0.1858
     30 H12         0.0021   -0.0041    0.0020 H         1 <0>         0.0636
     31 H13         1.0099    1.4631    0.0003 H         1 <0>         0.0633
     32 H14        -0.5399    1.4469   -0.8751 H         1 <0>         0.0747
     33 H15        -2.1436   -0.0453    1.2736 H         1 <0>         0.0601
     34 H16        -2.6738    1.3953    2.1746 H         1 <0>         0.0574
     35 H17        -2.6908    1.4026    0.3947 H         1 <0>         0.0663
@<TRIPOS>BOND
     1    1    2 1
     2    1   19 1
     3    1   20 1
     4    1   21 1
     5    2    7 1
     6    2    3 2
     7    3    4 1
     8    3   22 1
     9    4    5 1
    10    4   17 1
    11    4   18 1
    12    5    6 1
    13    5   23 1
    14    6   11 ar
    15    6    7 ar
    16    7    8 ar
    17    8    9 ar
    18    8   24 1
    19    9   10 ar
    20    9   12 1
    21   10   11 ar
    22   10   25 1
    23   11   26 1
    24   12   16 1
    25   12   13 2
    26   13   14 1
    27   13   27 1
    28   14   15 2
    29   14   28 1
    30   15   16 1
    31   15   29 1
    32   17   30 1
    33   17   31 1
    34   17   32 1
    35   18   33 1
    36   18   34 1
    37   18   35 1
@<TRIPOS>MOLECULE
ZINC03832326
   36    38     0     0     0
SMALL
USER_CHARGES

@<TRIPOS>ATOM
      1 C1         -0.7821    5.2762    2.3796 C.3       1 <0>        -0.1180
      2 C2         -0.7359    3.7701    2.4028 C.2       1 <0>        -0.0634
      3 C3         -0.7592    3.0844    1.2670 C.2       1 <0>        -0.1721
      4 C4         -0.7288    1.5792    1.2668 C.3       1 <0>         0.2124
      5 N1         -0.0172    1.0918    2.4553 N.pl3     1 <0>        -0.7369
      6 C5         -0.2899    1.6935    3.6839 C.ar      1 <0>         0.2363
      7 C6         -0.6639    3.0492    3.6897 C.ar      1 <0>        -0.1121
      8 C7         -0.9519    3.6822    4.8905 C.ar      1 <0>        -0.0447
      9 C8         -0.8621    2.9643    6.0843 C.ar      1 <0>        -0.0747
     10 C9         -0.4848    1.6185    6.0674 C.ar      1 <0>        -0.0378
     11 C10        -0.2009    0.9894    4.8722 C.ar      1 <0>        -0.1768
     12 C11        -1.1660    3.6284    7.3682 C.2       1 <0>        -0.0489
     13 C12        -1.1426    3.0992    8.6476 C.2       1 <0>        -0.1621
     14 C13        -1.4604    3.9116    9.7019 C.2       1 <0>        -0.0419
     15 C14        -1.8052    5.2316    9.4442 C.2       1 <0>        -0.1166
     16 S1         -1.6649    5.3162    7.6665 S.3       1 <0>         0.1901
     17 C15        -2.1782    6.2608   10.3673 C.1       1 <0>         0.2873
     18 N2         -2.4741    7.0772   11.0997 N.1       1 <0>        -0.3749
     19 Br1        -1.4390    3.2477   11.4724 Br        1 <0>        -0.0139
     20 C16        -0.0127    1.0858    0.0080 C.3       1 <0>        -0.1533
     21 C17        -2.1623    1.0444    1.2783 C.3       1 <0>        -0.1587
     22 H1          0.2331    5.6703    2.3340 H         1 <0>         0.0727
     23 H2         -1.3408    5.6092    1.5049 H         1 <0>         0.0698
     24 H3         -1.2722    5.6386    3.2833 H         1 <0>         0.0671
     25 H4         -0.8002    3.6149    0.3272 H         1 <0>         0.1251
     26 H5          0.6268    0.3695    2.3876 H         1 <0>         0.4051
     27 H6         -1.2435    4.7220    4.9013 H         1 <0>         0.1291
     28 H7         -0.4153    1.0683    6.9941 H         1 <0>         0.1321
     29 H8          0.0902   -0.0506    4.8642 H         1 <0>         0.1327
     30 H9         -0.8753    2.0656    8.8107 H         1 <0>         0.1562
     31 H10         0.0021   -0.0041    0.0020 H         1 <0>         0.0644
     32 H11         1.0099    1.4631    0.0003 H         1 <0>         0.0640
     33 H12        -0.5399    1.4469   -0.8751 H         1 <0>         0.0757
     34 H13        -2.1435   -0.0454    1.2736 H         1 <0>         0.0611
     35 H14        -2.6738    1.3952    2.1746 H         1 <0>         0.0580
     36 H15        -2.6907    1.4025    0.3947 H         1 <0>         0.0676
@<TRIPOS>BOND
     1    1    2 1
     2    1   22 1
     3    1   23 1
     4    1   24 1
     5    2    7 1
     6    2    3 2
     7    3    4 1
     8    3   25 1
     9    4    5 1
    10    4   20 1
    11    4   21 1
    12    5    6 1
    13    5   26 1
    14    6   11 ar
    15    6    7 ar
    16    7    8 ar
    17    8    9 ar
    18    8   27 1
    19    9   10 ar
    20    9   12 1
    21   10   11 ar
    22   10   28 1
    23   11   29 1
    24   12   16 1
    25   12   13 2
    26   13   14 1
    27   13   30 1
    28   14   15 2
    29   14   19 1
    30   15   16 1
    31   15   17 1
    32   17   18 3
    33   20   31 1
    34   20   32 1
    35   20   33 1
    36   21   34 1
    37   21   35 1
    38   21   36 1
@<TRIPOS>MOLECULE
ZINC03834060
   58    61     0     0     0
SMALL
USER_CHARGES

@<TRIPOS>ATOM
      1 C1         -4.2358   -1.7770   -3.1699 C.3       1 <0>        -0.1550
      2 C2         -3.9974   -2.1478   -1.7048 C.3       1 <0>        -0.1182
      3 C3         -3.7042   -0.8808   -0.8993 C.3       1 <0>        -0.0883
      4 H1         -4.5076   -0.1575   -1.0328 H         1 <0>         0.0727
      5 C4         -2.3497   -0.2627   -1.3532 C.3       1 <0>        -0.1124
      6 C5         -1.4052   -0.6603   -0.2138 C.3       1 <0>        -0.0748
      7 H2         -1.2347   -1.7620   -0.3119 H         1 <0>         0.0653
      8 C6         -0.0588   -0.0070   -0.1258 C.3       1 <0>        -0.0625
      9 H3          0.5527   -0.3429   -0.9907 H         1 <0>         0.0672
     10 C7         -0.0897    1.5148   -0.1411 C.3       1 <0>        -0.1157
     11 C8          1.3573    2.0269   -0.2380 C.3       1 <0>        -0.1023
     12 C9          2.0985    1.5023    0.9791 C.2       1 <0>        -0.0178
     13 C10         2.7786    2.3728    1.7215 C.2       1 <0>        -0.2470
     14 C11         3.6544    1.9099    2.8018 C.2       1 <0>         0.3853
     15 O1          4.1299    2.6881    3.6060 O.2       1 <0>        -0.4610
     16 C12         3.9429    0.4250    2.8783 C.3       1 <0>        -0.1597
     17 C13         2.6309   -0.3208    2.6320 C.3       1 <0>        -0.1139
     18 C14         2.0433    0.0351    1.2756 C.3       1 <0>        -0.0574
     19 H4          2.6613   -0.4663    0.5199 H         1 <0>         0.0872
     20 C15         0.6316   -0.5181    1.1477 C.3       1 <0>        -0.0687
     21 H5          0.7147   -1.6128    1.0499 H         1 <0>         0.0698
     22 C16        -0.2174   -0.2433    2.3798 C.3       1 <0>        -0.1156
     23 C17        -1.5884   -0.9330    2.2647 C.3       1 <0>        -0.1019
     24 C18        -2.2920   -0.4364    1.0258 C.3       1 <0>        -0.0516
     25 C19        -3.5453   -1.2320    0.6038 C.3       1 <0>        -0.0780
     26 H6         -3.3773   -2.2921    0.7429 H         1 <0>         0.0757
     27 C20        -4.7560   -0.7461    1.3964 C.3       1 <0>        -0.1141
     28 C21        -5.9952   -1.5356    0.9697 C.3       1 <0>         0.0723
     29 O2         -7.1286   -1.0807    1.7117 O.3       1 <0>        -0.5769
     30 C22        -2.7387    1.0124    1.2054 C.3       1 <0>        -0.1522
     31 H7         -3.3471   -1.2892   -3.5705 H         1 <0>         0.0568
     32 H8         -4.4447   -2.6798   -3.7438 H         1 <0>         0.0523
     33 H9         -5.0855   -1.0977   -3.2391 H         1 <0>         0.0526
     34 H10        -3.1477   -2.8271   -1.6355 H         1 <0>         0.0616
     35 H11        -4.8860   -2.6355   -1.3041 H         1 <0>         0.0595
     36 H12        -2.4236    0.8139   -1.4625 H         1 <0>         0.0696
     37 H13        -2.0251   -0.7180   -2.2924 H         1 <0>         0.0655
     38 H14        -0.6570    1.8793   -0.9920 H         1 <0>         0.0722
     39 H15        -0.4954    1.9095    0.7894 H         1 <0>         0.0771
     40 H16         1.8178    1.6476   -1.1458 H         1 <0>         0.0842
     41 H17         1.3577    3.1132   -0.2336 H         1 <0>         0.0780
     42 H18         2.7263    3.4288    1.4930 H         1 <0>         0.1317
     43 H19         4.6192    0.1806    2.1834 H         1 <0>         0.0893
     44 H20         4.3306    0.1721    3.8658 H         1 <0>         0.0931
     45 H21         1.9265   -0.0492    3.4157 H         1 <0>         0.0767
     46 H22         2.8188   -1.3926    2.6665 H         1 <0>         0.0811
     47 H23        -0.3452    0.8266    2.5109 H         1 <0>         0.0660
     48 H24         0.2886   -0.6475    3.2610 H         1 <0>         0.0646
     49 H25        -2.1850   -0.7005    3.1513 H         1 <0>         0.0637
     50 H26        -1.4473   -2.0154    2.2060 H         1 <0>         0.0614
     51 H27        -4.5778   -0.8972    2.4610 H         1 <0>         0.0683
     52 H28        -4.9160    0.3144    1.2016 H         1 <0>         0.0774
     53 H29        -6.1735   -1.3845   -0.0950 H         1 <0>         0.0466
     54 H30        -5.8353   -2.5960    1.1644 H         1 <0>         0.0413
     55 H31        -7.9517   -1.5384    1.4924 H         1 <0>         0.3792
     56 H32        -3.1848    1.3727    0.2784 H         1 <0>         0.0587
     57 H33        -3.4736    1.0692    2.0083 H         1 <0>         0.0598
     58 H34        -1.8765    1.6298    1.4576 H         1 <0>         0.0609
@<TRIPOS>BOND
     1    1    2 1
     2    1   31 1
     3    1   32 1
     4    1   33 1
     5    2    3 1
     6    2   34 1
     7    2   35 1
     8    3    4 1
     9    3   25 1
    10    3    5 1
    11    5    6 1
    12    5   36 1
    13    5   37 1
    14    6    7 1
    15    6   24 1
    16    6    8 1
    17    8    9 1
    18    8   20 1
    19    8   10 1
    20   10   11 1
    21   10   38 1
    22   10   39 1
    23   11   12 1
    24   11   40 1
    25   11   41 1
    26   12   18 1
    27   12   13 2
    28   13   14 1
    29   13   42 1
    30   14   15 2
    31   14   16 1
    32   16   17 1
    33   16   43 1
    34   16   44 1
    35   17   18 1
    36   17   45 1
    37   17   46 1
    38   18   19 1
    39   18   20 1
    40   20   21 1
    41   20   22 1
    42   22   23 1
    43   22   47 1
    44   22   48 1
    45   23   24 1
    46   23   49 1
    47   23   50 1
    48   24   25 1
    49   24   30 1
    50   25   26 1
    51   25   27 1
    52   27   28 1
    53   27   51 1
    54   27   52 1
    55   28   29 1
    56   28   53 1
    57   28   54 1
    58   29   55 1
    59   30   56 1
    60   30   57 1
    61   30   58 1
