@<TRIPOS>MOLECULE
ZINC01539579
   53    55     0     0     0
SMALL
USER_CHARGES

@<TRIPOS>ATOM
      1 C1          1.2625   -2.1803   -0.0250 C.3       1 <0>        -0.1142
      2 C2          1.2242   -0.6738   -0.0138 C.ar      1 <0>        -0.0728
      3 C3          2.3968    0.0486   -0.0188 C.ar      1 <0>        -0.1201
      4 C4          2.3748    1.4383   -0.0071 C.ar      1 <0>        -0.0617
      5 C5          1.1688    2.1058    0.0022 C.ar      1 <0>        -0.0666
      6 C6         -0.0168    1.3869    0.0097 C.ar      1 <0>        -0.0985
      7 C7          0.0021   -0.0041    0.0020 C.ar      1 <0>        -0.0424
      8 C8         -1.2688   -0.7686    0.0111 C.2       1 <0>        -0.0337
      9 C9         -1.6995   -1.3650   -1.1080 C.2       1 <0>        -0.1720
     10 C10        -2.0618   -0.8725    1.2583 C.ar      1 <0>        -0.0606
     11 C11        -2.6311    0.2714    1.8201 C.ar      1 <0>        -0.1221
     12 C12        -3.3727    0.1752    2.9754 C.ar      1 <0>        -0.0769
     13 C13        -3.5461   -1.0670    3.5925 C.ar      1 <0>        -0.1096
     14 C14        -2.9707   -2.2111    3.0321 C.ar      1 <0>        -0.0865
     15 C15        -2.2342   -2.1134    1.8737 C.ar      1 <0>        -0.1231
     16 C16        -4.3364   -1.1706    4.8345 C.2       1 <0>         0.4875
     17 O1         -4.4871   -2.2505    5.3703 O.co2     1 <0>        -0.6317
     18 C17         1.0746    3.6094   -0.0018 C.3       1 <0>        -0.0215
     19 C18         2.4016    4.2317    0.4274 C.3       1 <0>        -0.1117
     20 C19         3.5210    3.6153   -0.4198 C.3       1 <0>        -0.1103
     21 C20         3.6984    2.1582    0.0028 C.3       1 <0>        -0.0222
     22 C21         4.2887    2.1091    1.4135 C.3       1 <0>        -0.1396
     23 C22         4.6566    1.4656   -0.9683 C.3       1 <0>        -0.1407
     24 C23         0.7251    4.0892   -1.4120 C.3       1 <0>        -0.1382
     25 C24        -0.0253    4.0486    0.9667 C.3       1 <0>        -0.1447
     26 H1          1.2624   -2.5361   -1.0553 H         1 <0>         0.0671
     27 H2          2.1660   -2.5246    0.4782 H         1 <0>         0.0624
     28 H3          0.3866   -2.5698    0.4940 H         1 <0>         0.0711
     29 H4          3.3438   -0.4705   -0.0315 H         1 <0>         0.1199
     30 H5         -0.9614    1.9104    0.0170 H         1 <0>         0.1226
     31 H6         -2.6250   -1.9217   -1.1013 H         1 <0>         0.1057
     32 H7         -1.1214   -1.2892   -2.0171 H         1 <0>         0.1003
     33 H8         -2.4930    1.2318    1.3457 H         1 <0>         0.1131
     34 H9         -3.8168    1.0597    3.4075 H         1 <0>         0.1306
     35 H10        -3.1043   -3.1714    3.5079 H         1 <0>         0.1273
     36 H11        -1.7899   -2.9972    1.4403 H         1 <0>         0.1152
     37 H12         2.3707    5.3093    0.2669 H         1 <0>         0.0657
     38 H13         2.5810    4.0226    1.4821 H         1 <0>         0.0693
     39 H14         3.2509    3.6618   -1.4747 H         1 <0>         0.0678
     40 H15         4.4497    4.1614   -0.2543 H         1 <0>         0.0648
     41 H16         4.4354    1.0705    1.7100 H         1 <0>         0.0557
     42 H17         5.2466    2.6290    1.4248 H         1 <0>         0.0562
     43 H18         3.6045    2.5928    2.1107 H         1 <0>         0.0593
     44 H19         4.2353    1.4893   -1.9733 H         1 <0>         0.0553
     45 H20         5.6156    1.9836   -0.9640 H         1 <0>         0.0559
     46 H21         4.8014    0.4303   -0.6594 H         1 <0>         0.0580
     47 H22        -0.2312    3.6625   -1.7144 H         1 <0>         0.0559
     48 H23         0.6560    5.1770   -1.4189 H         1 <0>         0.0567
     49 H24         1.5015    3.7700   -2.1072 H         1 <0>         0.0564
     50 H25         0.2148    3.7003    1.9713 H         1 <0>         0.0589
     51 H26        -0.0965    5.1363    0.9666 H         1 <0>         0.0571
     52 H27        -0.9779    3.6221    0.6523 H         1 <0>         0.0599
     53 O2         -4.8908   -0.0675    5.3742 O.co2     1 <0>        -0.7545
@<TRIPOS>BOND
     1    1    2 1
     2    1   26 1
     3    1   27 1
     4    1   28 1
     5    2    7 ar
     6    2    3 ar
     7    3    4 ar
     8    3   29 1
     9    4   21 1
    10    4    5 ar
    11    5    6 ar
    12    5   18 1
    13    6    7 ar
    14    6   30 1
    15    7    8 1
    16    8    9 2
    17    8   10 1
    18    9   31 1
    19    9   32 1
    20   10   15 ar
    21   10   11 ar
    22   11   12 ar
    23   11   33 1
    24   12   13 ar
    25   12   34 1
    26   13   14 ar
    27   13   16 1
    28   14   15 ar
    29   14   35 1
    30   15   36 1
    31   16   17 2
    32   16   53 1
    33   18   19 1
    34   18   24 1
    35   18   25 1
    36   19   20 1
    37   19   37 1
    38   19   38 1
    39   20   21 1
    40   20   39 1
    41   20   40 1
    42   21   22 1
    43   21   23 1
    44   22   41 1
    45   22   42 1
    46   22   43 1
    47   23   44 1
    48   23   45 1
    49   23   46 1
    50   24   47 1
    51   24   48 1
    52   24   49 1
    53   25   50 1
    54   25   51 1
    55   25   52 1
@<TRIPOS>MOLECULE
ZINC03834061
   53    55     0     0     0
SMALL
USER_CHARGES

@<TRIPOS>ATOM
      1 C1         -0.1605   -2.8744   -0.0830 C.3       1 <0>        -0.1185
      2 C2         -1.4214   -2.0696    0.0999 C.ar      1 <0>        -0.0491
      3 C3         -2.6382   -2.7046    0.2109 C.ar      1 <0>        -0.1206
      4 C4         -3.8085   -1.9735    0.3787 C.ar      1 <0>        -0.0479
      5 C5         -3.7556   -0.5973    0.4411 C.ar      1 <0>        -0.0711
      6 C6         -2.5350    0.0511    0.3340 C.ar      1 <0>        -0.0810
      7 C7         -1.3624   -0.6776    0.1573 C.ar      1 <0>        -0.0387
      8 C8         -0.0608    0.0201    0.0373 C.2       1 <0>         0.2299
      9 N1          0.1737    0.7890   -0.9869 N.2       1 <0>        -0.3340
     10 O1          1.3589    1.5623   -1.0351 O.3       1 <0>        -0.3968
     11 C9          0.9738   -0.1572    1.0826 C.ar      1 <0>        -0.1058
     12 C10         2.3233   -0.1969    0.7286 C.ar      1 <0>        -0.0903
     13 C11         3.2858   -0.3559    1.7001 C.ar      1 <0>        -0.0855
     14 C12         2.9106   -0.4892    3.0395 C.ar      1 <0>        -0.0924
     15 C13         1.5591   -0.4551    3.3923 C.ar      1 <0>        -0.0941
     16 C14         0.5982   -0.2902    2.4202 C.ar      1 <0>        -0.1019
     17 C15         3.9421   -0.6655    4.0816 C.2       1 <0>         0.4866
     18 O2          3.6156   -0.7809    5.2460 O.co2     1 <0>        -0.6291
     19 C16        -4.9844    0.2532    0.6318 C.3       1 <0>        -0.0209
     20 C17        -6.2451   -0.5426    0.3004 C.3       1 <0>        -0.1105
     21 C18        -6.2007   -1.8638    1.0772 C.3       1 <0>        -0.1119
     22 C19        -5.1026   -2.7391    0.4771 C.3       1 <0>        -0.0235
     23 C20        -5.5273   -3.1937   -0.9207 C.3       1 <0>        -0.1388
     24 C21        -4.8954   -3.9678    1.3649 C.3       1 <0>        -0.1431
     25 C22        -5.0521    0.7229    2.0864 C.3       1 <0>        -0.1411
     26 C23        -4.9014    1.4730   -0.2880 C.3       1 <0>        -0.1430
     27 H1          0.3162   -3.0280    0.8851 H         1 <0>         0.0801
     28 H2         -0.4068   -3.8404   -0.5240 H         1 <0>         0.0664
     29 H3          0.5211   -2.3372   -0.7425 H         1 <0>         0.0655
     30 H4         -2.6838   -3.7828    0.1667 H         1 <0>         0.1263
     31 H5         -2.4942    1.1292    0.3836 H         1 <0>         0.1244
     32 H6          1.4449    2.1009   -1.8335 H         1 <0>         0.3948
     33 H7          2.6128   -0.0987   -0.3073 H         1 <0>         0.1216
     34 H8          4.3302   -0.3822    1.4265 H         1 <0>         0.1332
     35 H9          1.2683   -0.5576    4.4274 H         1 <0>         0.1296
     36 H10        -0.4465   -0.2635    2.6928 H         1 <0>         0.1173
     37 H11        -7.1267    0.0269    0.5946 H         1 <0>         0.0664
     38 H12        -6.2800   -0.7463   -0.7698 H         1 <0>         0.0685
     39 H13        -5.9802   -1.6656    2.1261 H         1 <0>         0.0702
     40 H14        -7.1619   -2.3711    0.9937 H         1 <0>         0.0663
     41 H15        -4.7546   -3.8351   -1.3445 H         1 <0>         0.0564
     42 H16        -6.4633   -3.7481   -0.8537 H         1 <0>         0.0574
     43 H17        -5.6664   -2.3217   -1.5597 H         1 <0>         0.0581
     44 H18        -4.5829   -3.6490    2.3593 H         1 <0>         0.0585
     45 H19        -5.8296   -4.5245    1.4386 H         1 <0>         0.0572
     46 H20        -4.1260   -4.6053    0.9292 H         1 <0>         0.0596
     47 H21        -4.1629    1.3079    2.3210 H         1 <0>         0.0573
     48 H22        -5.9402    1.3388    2.2284 H         1 <0>         0.0574
     49 H23        -5.1016   -0.1435    2.7460 H         1 <0>         0.0595
     50 H24        -4.8432    1.1427   -1.3251 H         1 <0>         0.0566
     51 H25        -5.7890    2.0911   -0.1528 H         1 <0>         0.0573
     52 H26        -4.0129    2.0543   -0.0413 H         1 <0>         0.0590
     53 O3          5.2451   -0.6983    3.7410 O.co2     1 <0>        -0.7517
@<TRIPOS>BOND
     1    1    2 1
     2    1   27 1
     3    1   28 1
     4    1   29 1
     5    2    7 ar
     6    2    3 ar
     7    3    4 ar
     8    3   30 1
     9    4   22 1
    10    4    5 ar
    11    5    6 ar
    12    5   19 1
    13    6    7 ar
    14    6   31 1
    15    7    8 1
    16    8    9 2
    17    8   11 1
    18    9   10 1
    19   10   32 1
    20   11   16 ar
    21   11   12 ar
    22   12   13 ar
    23   12   33 1
    24   13   14 ar
    25   13   34 1
    26   14   15 ar
    27   14   17 1
    28   15   16 ar
    29   15   35 1
    30   16   36 1
    31   17   18 2
    32   17   53 1
    33   19   20 1
    34   19   25 1
    35   19   26 1
    36   20   21 1
    37   20   37 1
    38   20   38 1
    39   21   22 1
    40   21   39 1
    41   21   40 1
    42   22   23 1
    43   22   24 1
    44   23   41 1
    45   23   42 1
    46   23   43 1
    47   24   44 1
    48   24   45 1
    49   24   46 1
    50   25   47 1
    51   25   48 1
    52   25   49 1
    53   26   50 1
    54   26   51 1
    55   26   52 1
@<TRIPOS>MOLECULE
ZINC03834062
   62    64     0     0     0
SMALL
USER_CHARGES

@<TRIPOS>ATOM
      1 C1          2.9480    3.9897   -3.4216 C.3       1 <0>        -0.1457
      2 C2          2.8084    3.1388   -2.1577 C.3       1 <0>        -0.1241
      3 C3          1.4973    2.3522   -2.2147 C.3       1 <0>         0.0731
      4 O1          1.3670    1.5575   -1.0342 O.3       1 <0>        -0.2256
      5 N1          0.1804    0.7862   -0.9873 N.2       1 <0>        -0.3368
      6 C4         -0.0570    0.0186    0.0372 C.2       1 <0>         0.2321
      7 C5          0.9755   -0.1593    1.0844 C.ar      1 <0>        -0.1056
      8 C6          2.3254   -0.2039    0.7325 C.ar      1 <0>        -0.0910
      9 C7          3.2860   -0.3635    1.7058 C.ar      1 <0>        -0.0843
     10 C8          2.9085   -0.4925    3.0449 C.ar      1 <0>        -0.0922
     11 C9          1.5565   -0.4535    3.3957 C.ar      1 <0>        -0.0938
     12 C10         0.5975   -0.2881    2.4218 C.ar      1 <0>        -0.1009
     13 C11         3.9378   -0.6694    4.0890 C.2       1 <0>         0.4867
     14 O2          3.6093   -0.7811    5.2531 O.co2     1 <0>        -0.6292
     15 C12        -1.3599   -0.6769    0.1556 C.ar      1 <0>        -0.0378
     16 C13        -2.5316    0.0537    0.3295 C.ar      1 <0>        -0.0807
     17 C14        -3.7535   -0.5927    0.4350 C.ar      1 <0>        -0.0711
     18 C15        -3.8084   -1.9689    0.3739 C.ar      1 <0>        -0.0482
     19 C16        -2.6389   -2.7020    0.2090 C.ar      1 <0>        -0.1206
     20 C17        -1.4209   -2.0689    0.0996 C.ar      1 <0>        -0.0489
     21 C18        -0.1609   -2.8759   -0.0803 C.3       1 <0>        -0.1183
     22 C19        -5.1038   -2.7324    0.4709 C.3       1 <0>        -0.0234
     23 C20        -6.2017   -1.8547    1.0680 C.3       1 <0>        -0.1119
     24 C21        -6.2426   -0.5343    0.2898 C.3       1 <0>        -0.1104
     25 C22        -4.9813    0.2599    0.6227 C.3       1 <0>        -0.0207
     26 C23        -5.0509    0.7312    2.0766 C.3       1 <0>        -0.1410
     27 C24        -4.8948    1.4786   -0.2983 C.3       1 <0>        -0.1429
     28 C25        -5.5267   -3.1878   -0.9272 C.3       1 <0>        -0.1388
     29 C26        -4.9000   -3.9605    1.3603 C.3       1 <0>        -0.1430
     30 H1          2.9511    3.3412   -4.2977 H         1 <0>         0.0555
     31 H2          2.1103    4.6840   -3.4865 H         1 <0>         0.0551
     32 H3          3.8820    4.5501   -3.3810 H         1 <0>         0.0621
     33 H4          2.8053    3.7873   -1.2816 H         1 <0>         0.0720
     34 H5          3.6462    2.4445   -2.0928 H         1 <0>         0.0728
     35 H6          1.5005    1.7037   -3.0908 H         1 <0>         0.0519
     36 H7          0.6596    3.0466   -2.2795 H         1 <0>         0.0515
     37 H8          2.6168   -0.1090   -0.3031 H         1 <0>         0.1204
     38 H9          4.3308   -0.3935    1.4338 H         1 <0>         0.1328
     39 H10         1.2639   -0.5527    4.4305 H         1 <0>         0.1293
     40 H11        -0.4475   -0.2576    2.6928 H         1 <0>         0.1173
     41 H12        -2.4893    1.1318    0.3779 H         1 <0>         0.1242
     42 H13        -2.6861   -3.7801    0.1659 H         1 <0>         0.1260
     43 H14         0.3138   -3.0291    0.8889 H         1 <0>         0.0801
     44 H15        -0.4080   -3.8419   -0.5206 H         1 <0>         0.0660
     45 H16         0.5226   -2.3404   -0.7391 H         1 <0>         0.0656
     46 H17        -5.9827   -1.6558    2.1171 H         1 <0>         0.0701
     47 H18        -7.1634   -2.3607    0.9834 H         1 <0>         0.0661
     48 H19        -7.1239    0.0368    0.5818 H         1 <0>         0.0662
     49 H20        -6.2759   -0.7391   -0.7803 H         1 <0>         0.0683
     50 H21        -4.1612    1.3151    2.3122 H         1 <0>         0.0573
     51 H22        -5.9382    1.3486    2.2163 H         1 <0>         0.0572
     52 H23        -5.1028   -0.1344    2.7370 H         1 <0>         0.0595
     53 H24        -4.8352    1.1472   -1.3349 H         1 <0>         0.0564
     54 H25        -5.7817    2.0982   -0.1653 H         1 <0>         0.0571
     55 H26        -4.0059    2.0588   -0.0506 H         1 <0>         0.0589
     56 H27        -4.7542   -3.8309   -1.3490 H         1 <0>         0.0563
     57 H28        -6.4637   -3.7407   -0.8613 H         1 <0>         0.0572
     58 H29        -5.6633   -2.3162   -1.5674 H         1 <0>         0.0581
     59 H30        -4.5889   -3.6412    2.3550 H         1 <0>         0.0585
     60 H31        -5.8353   -4.5157    1.4330 H         1 <0>         0.0570
     61 H32        -4.1309   -4.5996    0.9267 H         1 <0>         0.0596
     62 O3          5.2413   -0.7069    3.7504 O.co2     1 <0>        -0.7520
@<TRIPOS>BOND
     1    1    2 1
     2    1   30 1
     3    1   31 1
     4    1   32 1
     5    2    3 1
     6    2   33 1
     7    2   34 1
     8    3    4 1
     9    3   35 1
    10    3   36 1
    11    4    5 1
    12    5    6 2
    13    6    7 1
    14    6   15 1
    15    7   12 ar
    16    7    8 ar
    17    8    9 ar
    18    8   37 1
    19    9   10 ar
    20    9   38 1
    21   10   11 ar
    22   10   13 1
    23   11   12 ar
    24   11   39 1
    25   12   40 1
    26   13   14 2
    27   13   62 1
    28   15   20 ar
    29   15   16 ar
    30   16   17 ar
    31   16   41 1
    32   17   25 1
    33   17   18 ar
    34   18   19 ar
    35   18   22 1
    36   19   20 ar
    37   19   42 1
    38   20   21 1
    39   21   43 1
    40   21   44 1
    41   21   45 1
    42   22   23 1
    43   22   28 1
    44   22   29 1
    45   23   24 1
    46   23   46 1
    47   23   47 1
    48   24   25 1
    49   24   48 1
    50   24   49 1
    51   25   26 1
    52   25   27 1
    53   26   50 1
    54   26   51 1
    55   26   52 1
    56   27   53 1
    57   27   54 1
    58   27   55 1
    59   28   56 1
    60   28   57 1
    61   28   58 1
    62   29   59 1
    63   29   60 1
    64   29   61 1
@<TRIPOS>MOLECULE
ZINC03834064
   56    58     0     0     0
SMALL
USER_CHARGES

@<TRIPOS>ATOM
      1 C1         -0.1609   -2.8756   -0.0808 C.3       1 <0>        -0.1185
      2 C2         -1.4210   -2.0690    0.0996 C.ar      1 <0>        -0.0488
      3 C3         -2.6387   -2.7025    0.2093 C.ar      1 <0>        -0.1207
      4 C4         -3.8084   -1.9698    0.3748 C.ar      1 <0>        -0.0481
      5 C5         -3.7539   -0.5937    0.4362 C.ar      1 <0>        -0.0711
      6 C6         -2.5323    0.0532    0.3304 C.ar      1 <0>        -0.0807
      7 C7         -1.3604   -0.6771    0.1559 C.ar      1 <0>        -0.0383
      8 C8         -0.0577    0.0189    0.0372 C.2       1 <0>         0.2331
      9 N1          0.1791    0.7868   -0.9872 N.2       1 <0>        -0.3385
     10 O1          1.3654    1.5585   -1.0343 O.3       1 <0>        -0.2284
     11 C9          1.4951    2.3535   -2.2146 C.3       1 <0>         0.0426
     12 C10         0.9751   -0.1589    1.0841 C.ar      1 <0>        -0.1063
     13 C11         2.3250   -0.2026    0.7318 C.ar      1 <0>        -0.0917
     14 C12         3.2859   -0.3621    1.7047 C.ar      1 <0>        -0.0844
     15 C13         2.9088   -0.4919    3.0439 C.ar      1 <0>        -0.0922
     16 C14         1.5570   -0.4538    3.3951 C.ar      1 <0>        -0.0937
     17 C15         0.5976   -0.2885    2.4215 C.ar      1 <0>        -0.1006
     18 C16         3.9386   -0.6687    4.0876 C.2       1 <0>         0.4867
     19 O2          3.6104   -0.7811    5.2518 O.co2     1 <0>        -0.6291
     20 C17        -4.9820    0.2586    0.6244 C.3       1 <0>        -0.0208
     21 C18        -6.2431   -0.5360    0.2918 C.3       1 <0>        -0.1105
     22 C19        -6.2015   -1.8566    1.0697 C.3       1 <0>        -0.1119
     23 C20        -5.1035   -2.7337    0.4720 C.3       1 <0>        -0.0234
     24 C21        -5.5268   -3.1889   -0.9261 C.3       1 <0>        -0.1388
     25 C22        -4.8991   -3.9620    1.3611 C.3       1 <0>        -0.1430
     26 C23        -5.0512    0.7295    2.0785 C.3       1 <0>        -0.1410
     27 C24        -4.8961    1.4775   -0.2963 C.3       1 <0>        -0.1429
     28 H1          0.3143   -3.0289    0.8881 H         1 <0>         0.0802
     29 H2         -0.4077   -3.8416   -0.5213 H         1 <0>         0.0661
     30 H3          0.5223   -2.3397   -0.7398 H         1 <0>         0.0657
     31 H4         -2.6856   -3.7806    0.1659 H         1 <0>         0.1261
     32 H5         -2.4903    1.1313    0.3791 H         1 <0>         0.1243
     33 H6          1.4982    1.7052   -3.0908 H         1 <0>         0.0456
     34 H7          0.6572    3.0476   -2.2791 H         1 <0>         0.0452
     35 H8          2.4290    2.9142   -2.1742 H         1 <0>         0.0941
     36 H9          2.6160   -0.1071   -0.3039 H         1 <0>         0.1207
     37 H10         4.3306   -0.3914    1.4325 H         1 <0>         0.1332
     38 H11         1.2647   -0.5537    4.4300 H         1 <0>         0.1295
     39 H12        -0.4473   -0.2587    2.6928 H         1 <0>         0.1176
     40 H13        -7.1245    0.0348    0.5843 H         1 <0>         0.0662
     41 H14        -6.2767   -0.7405   -0.7783 H         1 <0>         0.0684
     42 H15        -5.9823   -1.6578    2.1188 H         1 <0>         0.0702
     43 H16        -7.1631   -2.3628    0.9853 H         1 <0>         0.0661
     44 H17        -4.7543   -3.8317   -1.3483 H         1 <0>         0.0563
     45 H18        -6.4636   -3.7421   -0.8600 H         1 <0>         0.0572
     46 H19        -5.6639   -2.3173   -1.5660 H         1 <0>         0.0581
     47 H20        -4.5878   -3.6428    2.3557 H         1 <0>         0.0585
     48 H21        -5.8342   -4.5174    1.4339 H         1 <0>         0.0571
     49 H22        -4.1299   -4.6007    0.9271 H         1 <0>         0.0596
     50 H23        -4.1616    1.3137    2.3140 H         1 <0>         0.0574
     51 H24        -5.9387    1.3466    2.2187 H         1 <0>         0.0572
     52 H25        -5.1026   -0.1362    2.7388 H         1 <0>         0.0595
     53 H26        -4.8367    1.1463   -1.3330 H         1 <0>         0.0565
     54 H27        -5.7832    2.0968   -0.1629 H         1 <0>         0.0572
     55 H28        -4.0073    2.0579   -0.0488 H         1 <0>         0.0590
     56 O3          5.2420   -0.7053    3.7486 O.co2     1 <0>        -0.7519
@<TRIPOS>BOND
     1    1    2 1
     2    1   28 1
     3    1   29 1
     4    1   30 1
     5    2    7 ar
     6    2    3 ar
     7    3    4 ar
     8    3   31 1
     9    4   23 1
    10    4    5 ar
    11    5    6 ar
    12    5   20 1
    13    6    7 ar
    14    6   32 1
    15    7    8 1
    16    8    9 2
    17    8   12 1
    18    9   10 1
    19   10   11 1
    20   11   33 1
    21   11   34 1
    22   11   35 1
    23   12   17 ar
    24   12   13 ar
    25   13   14 ar
    26   13   36 1
    27   14   15 ar
    28   14   37 1
    29   15   16 ar
    30   15   18 1
    31   16   17 ar
    32   16   38 1
    33   17   39 1
    34   18   19 2
    35   18   56 1
    36   20   21 1
    37   20   26 1
    38   20   27 1
    39   21   22 1
    40   21   40 1
    41   21   41 1
    42   22   23 1
    43   22   42 1
    44   22   43 1
    45   23   24 1
    46   23   25 1
    47   24   44 1
    48   24   45 1
    49   24   46 1
    50   25   47 1
    51   25   48 1
    52   25   49 1
    53   26   50 1
    54   26   51 1
    55   26   52 1
    56   27   53 1
    57   27   54 1
    58   27   55 1
@<TRIPOS>MOLECULE
ZINC03834065
   57    59     0     0     0
SMALL
USER_CHARGES

@<TRIPOS>ATOM
      1 C1         -0.1609   -2.8759   -0.0803 C.3       1 <0>        -0.1197
      2 C2         -1.4209   -2.0689    0.0996 C.ar      1 <0>        -0.0461
      3 C3         -2.6389   -2.7020    0.2090 C.ar      1 <0>        -0.1205
      4 C4         -3.8084   -1.9689    0.3740 C.ar      1 <0>        -0.0453
      5 C5         -3.7535   -0.5928    0.4351 C.ar      1 <0>        -0.0709
      6 C6         -2.5317    0.0537    0.3295 C.ar      1 <0>        -0.0786
      7 C7         -1.3599   -0.6769    0.1556 C.ar      1 <0>        -0.0424
      8 C8         -0.0570    0.0186    0.0372 C.2       1 <0>         0.2495
      9 N1          0.1804    0.7862   -0.9873 N.2       1 <0>        -0.3310
     10 O1          1.3669    1.5575   -1.0342 O.3       1 <0>        -0.2260
     11 C9          1.4972    2.3523   -2.2147 C.3       1 <0>         0.1719
     12 C10         2.7586    3.1091   -2.1599 C.1       1 <0>         0.2098
     13 N2          3.7321    3.6931   -2.1176 N.1       1 <0>        -0.3995
     14 C11         0.9755   -0.1593    1.0844 C.ar      1 <0>        -0.1132
     15 C12         2.3254   -0.2039    0.7324 C.ar      1 <0>        -0.0902
     16 C13         3.2860   -0.3634    1.7057 C.ar      1 <0>        -0.0846
     17 C14         2.9085   -0.4924    3.0449 C.ar      1 <0>        -0.0881
     18 C15         1.5565   -0.4535    3.3957 C.ar      1 <0>        -0.0939
     19 C16         0.5975   -0.2881    2.4218 C.ar      1 <0>        -0.0971
     20 C17         3.9379   -0.6693    4.0889 C.2       1 <0>         0.4857
     21 O2          3.6093   -0.7811    5.2531 O.co2     1 <0>        -0.6283
     22 C18        -4.9813    0.2598    0.6228 C.3       1 <0>        -0.0210
     23 C19        -6.2427   -0.5344    0.2899 C.3       1 <0>        -0.1107
     24 C20        -6.2017   -1.8548    1.0681 C.3       1 <0>        -0.1123
     25 C21        -5.1037   -2.7324    0.4709 C.3       1 <0>        -0.0239
     26 C22        -5.5267   -3.1878   -0.9272 C.3       1 <0>        -0.1389
     27 C23        -4.9000   -3.9606    1.3604 C.3       1 <0>        -0.1434
     28 C24        -5.0509    0.7311    2.0767 C.3       1 <0>        -0.1414
     29 C25        -4.8948    1.4786   -0.2982 C.3       1 <0>        -0.1430
     30 H1          0.3139   -3.0291    0.8888 H         1 <0>         0.0807
     31 H2         -0.4079   -3.8419   -0.5206 H         1 <0>         0.0670
     32 H3          0.5226   -2.3404   -0.7391 H         1 <0>         0.0664
     33 H4         -2.6861   -3.7801    0.1659 H         1 <0>         0.1268
     34 H5         -2.4893    1.1318    0.3780 H         1 <0>         0.1261
     35 H6          1.5003    1.7038   -3.0908 H         1 <0>         0.1025
     36 H7          0.6595    3.0466   -2.2795 H         1 <0>         0.1023
     37 H8          2.6167   -0.1089   -0.3032 H         1 <0>         0.1208
     38 H9          4.3308   -0.3934    1.4338 H         1 <0>         0.1333
     39 H10         1.2639   -0.5528    4.4305 H         1 <0>         0.1305
     40 H11        -0.4475   -0.2576    2.6928 H         1 <0>         0.1191
     41 H12        -7.1239    0.0367    0.5820 H         1 <0>         0.0664
     42 H13        -6.2759   -0.7392   -0.7802 H         1 <0>         0.0687
     43 H14        -5.9827   -1.6559    2.1172 H         1 <0>         0.0702
     44 H15        -7.1634   -2.3608    0.9835 H         1 <0>         0.0663
     45 H16        -4.7542   -3.8309   -1.3490 H         1 <0>         0.0565
     46 H17        -6.4637   -3.7408   -0.8612 H         1 <0>         0.0574
     47 H18        -5.6634   -2.3163   -1.5673 H         1 <0>         0.0584
     48 H19        -4.5888   -3.6412    2.3550 H         1 <0>         0.0586
     49 H20        -5.8352   -4.5157    1.4330 H         1 <0>         0.0573
     50 H21        -4.1308   -4.5996    0.9267 H         1 <0>         0.0598
     51 H22        -4.1612    1.3151    2.3123 H         1 <0>         0.0576
     52 H23        -5.9382    1.3485    2.2165 H         1 <0>         0.0574
     53 H24        -5.1028   -0.1345    2.7371 H         1 <0>         0.0594
     54 H25        -4.8353    1.1471   -1.3348 H         1 <0>         0.0570
     55 H26        -5.7818    2.0981   -0.1652 H         1 <0>         0.0572
     56 H27        -4.0059    2.0587   -0.0505 H         1 <0>         0.0595
     57 O3          5.2413   -0.7068    3.7503 O.co2     1 <0>        -0.7503
@<TRIPOS>BOND
     1    1    2 1
     2    1   30 1
     3    1   31 1
     4    1   32 1
     5    2    7 ar
     6    2    3 ar
     7    3    4 ar
     8    3   33 1
     9    4   25 1
    10    4    5 ar
    11    5    6 ar
    12    5   22 1
    13    6    7 ar
    14    6   34 1
    15    7    8 1
    16    8    9 2
    17    8   14 1
    18    9   10 1
    19   10   11 1
    20   11   12 1
    21   11   35 1
    22   11   36 1
    23   12   13 3
    24   14   19 ar
    25   14   15 ar
    26   15   16 ar
    27   15   37 1
    28   16   17 ar
    29   16   38 1
    30   17   18 ar
    31   17   20 1
    32   18   19 ar
    33   18   39 1
    34   19   40 1
    35   20   21 2
    36   20   57 1
    37   22   23 1
    38   22   28 1
    39   22   29 1
    40   23   24 1
    41   23   41 1
    42   23   42 1
    43   24   25 1
    44   24   43 1
    45   24   44 1
    46   25   26 1
    47   25   27 1
    48   26   45 1
    49   26   46 1
    50   26   47 1
    51   27   48 1
    52   27   49 1
    53   27   50 1
    54   28   51 1
    55   28   52 1
    56   28   53 1
    57   29   54 1
    58   29   55 1
    59   29   56 1
@<TRIPOS>MOLECULE
ZINC03834066
   50    52     0     0     0
SMALL
USER_CHARGES

@<TRIPOS>ATOM
      1 C1         -1.0347    6.1086   -2.9755 C.3       1 <0>        -0.1423
      2 C2         -0.4416    6.0432   -1.5667 C.3       1 <0>        -0.0237
      3 C3          0.9015    6.7701   -1.5514 C.3       1 <0>        -0.1119
      4 C4          1.9043    5.9497   -2.3712 C.3       1 <0>        -0.1120
      5 C5          2.2241    4.6702   -1.6013 C.3       1 <0>        -0.0230
      6 C6          0.9561    3.9669   -1.1914 C.ar      1 <0>        -0.0464
      7 C7         -0.2680    4.6009   -1.1672 C.ar      1 <0>        -0.0489
      8 C8         -1.3975    3.9047   -0.7656 C.ar      1 <0>        -0.0886
      9 C9         -1.3069    2.5658   -0.3963 C.ar      1 <0>        -0.0151
     10 C10        -0.0655    1.9291   -0.4218 C.ar      1 <0>        -0.0660
     11 C11         1.0516    2.6308   -0.8205 C.ar      1 <0>        -0.0965
     12 Br1         0.0818    0.1119    0.0802 Br        1 <0>        -0.0176
     13 C12        -2.5178    1.8242    0.0259 C.2       1 <0>         0.1981
     14 N1         -2.4475    0.5467    0.2676 N.2       1 <0>        -0.2951
     15 O1         -3.6257   -0.1862    0.5504 O.3       1 <0>        -0.4003
     16 C13        -3.8085    2.5360    0.1731 C.ar      1 <0>        -0.0979
     17 C14        -4.5927    2.3306    1.3093 C.ar      1 <0>        -0.0894
     18 C15        -5.7902    2.9955    1.4491 C.ar      1 <0>        -0.0804
     19 C16        -6.2254    3.8680    0.4483 C.ar      1 <0>        -0.0949
     20 C17        -5.4422    4.0690   -0.6913 C.ar      1 <0>        -0.0903
     21 C18        -4.2425    3.4074   -0.8271 C.ar      1 <0>        -0.1188
     22 C19        -7.5122    4.5776    0.5951 C.2       1 <0>         0.4870
     23 O2         -7.8901    5.3364   -0.2751 O.co2     1 <0>        -0.6291
     24 C20         3.0322    5.0227   -0.3508 C.3       1 <0>        -0.1407
     25 C21         3.0520    3.7402   -2.4903 C.3       1 <0>        -0.1436
     26 C22        -1.3965    6.7269   -0.5860 C.3       1 <0>        -0.1484
     27 H1         -2.0027    5.6076   -2.9859 H         1 <0>         0.0603
     28 H2         -1.1619    7.1508   -3.2682 H         1 <0>         0.0622
     29 H3         -0.3621    5.6139   -3.6762 H         1 <0>         0.0581
     30 H4          0.7883    7.7599   -1.9937 H         1 <0>         0.0704
     31 H5          1.2559    6.8650   -0.5251 H         1 <0>         0.0702
     32 H6          1.4686    5.6971   -3.3379 H         1 <0>         0.0710
     33 H7          2.8167    6.5272   -2.5195 H         1 <0>         0.0688
     34 H8         -2.3552    4.4033   -0.7439 H         1 <0>         0.1523
     35 H9          2.0119    2.1372   -0.8447 H         1 <0>         0.1348
     36 H10        -3.4736   -1.1266    0.7165 H         1 <0>         0.3952
     37 H11        -4.2582    1.6527    2.0807 H         1 <0>         0.1176
     38 H12        -6.3949    2.8395    2.3303 H         1 <0>         0.1340
     39 H13        -5.7778    4.7435   -1.4652 H         1 <0>         0.1309
     40 H14        -3.6369    3.5629   -1.7077 H         1 <0>         0.1203
     41 H15         3.2796    4.1099    0.1911 H         1 <0>         0.0566
     42 H16         3.9505    5.5318   -0.6433 H         1 <0>         0.0600
     43 H17         2.4422    5.6774    0.2905 H         1 <0>         0.0608
     44 H18         2.4762    3.4783   -3.3780 H         1 <0>         0.0583
     45 H19         3.9704    4.2456   -2.7890 H         1 <0>         0.0601
     46 H20         3.2993    2.8340   -1.9373 H         1 <0>         0.0590
     47 H21        -0.9824    6.6741    0.4209 H         1 <0>         0.0580
     48 H22        -1.5247    7.7709   -0.8719 H         1 <0>         0.0625
     49 H23        -2.3626    6.2228   -0.6084 H         1 <0>         0.0653
     50 O3         -8.2670    4.3835    1.6940 O.co2     1 <0>        -0.7513
@<TRIPOS>BOND
     1    1    2 1
     2    1   27 1
     3    1   28 1
     4    1   29 1
     5    2    7 1
     6    2    3 1
     7    2   26 1
     8    3    4 1
     9    3   30 1
    10    3   31 1
    11    4    5 1
    12    4   32 1
    13    4   33 1
    14    5    6 1
    15    5   24 1
    16    5   25 1
    17    6   11 ar
    18    6    7 ar
    19    7    8 ar
    20    8    9 ar
    21    8   34 1
    22    9   10 ar
    23    9   13 1
    24   10   11 ar
    25   10   12 1
    26   11   35 1
    27   13   14 2
    28   13   16 1
    29   14   15 1
    30   15   36 1
    31   16   21 ar
    32   16   17 ar
    33   17   18 ar
    34   17   37 1
    35   18   19 ar
    36   18   38 1
    37   19   20 ar
    38   19   22 1
    39   20   21 ar
    40   20   39 1
    41   21   40 1
    42   22   23 2
    43   22   50 1
    44   24   41 1
    45   24   42 1
    46   24   43 1
    47   25   44 1
    48   25   45 1
    49   25   46 1
    50   26   47 1
    51   26   48 1
    52   26   49 1
@<TRIPOS>MOLECULE
ZINC03834067
   63    66     0     0     0
SMALL
USER_CHARGES

@<TRIPOS>ATOM
      1 C1         -3.7192    3.6929   -0.0223 C.3       1 <0>        -0.1183
      2 C2         -2.3853    4.3770    0.1319 C.ar      1 <0>        -0.0487
      3 C3         -2.3186    5.7483    0.2374 C.ar      1 <0>        -0.1205
      4 C4         -1.0942    6.3913    0.3788 C.ar      1 <0>        -0.0478
      5 C5          0.0688    5.6524    0.4203 C.ar      1 <0>        -0.0710
      6 C6          0.0118    4.2710    0.3186 C.ar      1 <0>        -0.0804
      7 C7         -1.2117    3.6248    0.1682 C.ar      1 <0>        -0.0383
      8 C8         -1.2672    2.1486    0.0538 C.2       1 <0>         0.2344
      9 N1         -0.7413    1.5555   -0.9790 N.2       1 <0>        -0.3371
     10 O1         -0.6717    0.1419   -1.0243 O.3       1 <0>        -0.2221
     11 C9         -0.0712   -0.3726   -2.2146 C.3       1 <0>         0.1054
     12 C10        -0.0491   -1.9013   -2.1549 C.3       1 <0>        -0.1538
     13 C11         1.3180   -2.5878   -2.1337 C.3       1 <0>        -0.1757
     14 C12         0.4505   -2.6494   -3.3925 C.3       1 <0>        -0.1703
     15 C13        -1.9211    1.3476    1.1145 C.ar      1 <0>        -0.1060
     16 C14        -1.8099    1.7360    2.4505 C.ar      1 <0>        -0.1014
     17 C15        -2.4125    0.9889    3.4375 C.ar      1 <0>        -0.0848
     18 C16        -3.1357   -0.1585    3.1014 C.ar      1 <0>        -0.0918
     19 C17        -3.2466   -0.5467    1.7637 C.ar      1 <0>        -0.0935
     20 C18        -2.6433    0.2016    0.7779 C.ar      1 <0>        -0.0898
     21 C19        -3.7829   -0.9603    4.1594 C.2       1 <0>         0.4867
     22 O2         -4.4118   -1.9575    3.8668 O.co2     1 <0>        -0.6291
     23 C20         1.4262    6.2858    0.5822 C.3       1 <0>        -0.0207
     24 C21         1.3674    7.7747    0.2473 C.3       1 <0>        -0.1104
     25 C22         0.2194    8.4045    1.0451 C.3       1 <0>        -0.1120
     26 C23        -1.1016    7.8951    0.4728 C.3       1 <0>        -0.0234
     27 C24        -1.3082    8.4868   -0.9230 C.3       1 <0>        -0.1387
     28 C25        -2.2495    8.3380    1.3823 C.3       1 <0>        -0.1431
     29 C26         1.8947    6.1121    2.0283 C.3       1 <0>        -0.1411
     30 C27         2.4196    5.5966   -0.3553 C.3       1 <0>        -0.1428
     31 H1         -4.0726    3.3614    0.9541 H         1 <0>         0.0803
     32 H2         -4.4381    4.3910   -0.4511 H         1 <0>         0.0660
     33 H3         -3.6117    2.8314   -0.6815 H         1 <0>         0.0654
     34 H4         -3.2276    6.3309    0.2095 H         1 <0>         0.1261
     35 H5          0.9234    3.6927    0.3517 H         1 <0>         0.1243
     36 H6         -0.6489   -0.0511   -3.0812 H         1 <0>         0.0569
     37 H7          0.9488    0.0025   -2.2984 H         1 <0>         0.0539
     38 H8         -0.8525   -2.3610   -1.5792 H         1 <0>         0.1161
     39 H9          2.2018   -1.9504   -2.1622 H         1 <0>         0.0946
     40 H10         1.4144   -3.4993   -1.5438 H         1 <0>         0.0971
     41 H11        -0.0238   -3.6015   -3.6307 H         1 <0>         0.0987
     42 H12         0.7632   -2.0526   -4.2493 H         1 <0>         0.0946
     43 H13        -1.2506    2.6227    2.7101 H         1 <0>         0.1175
     44 H14        -2.3266    1.2897    4.4711 H         1 <0>         0.1332
     45 H15        -3.8056   -1.4332    1.5030 H         1 <0>         0.1288
     46 H16        -2.7292   -0.0981   -0.2561 H         1 <0>         0.1203
     47 H17         2.3091    8.2502    0.5215 H         1 <0>         0.0662
     48 H18         1.1878    7.9042   -0.8200 H         1 <0>         0.0683
     49 H19         0.3002    8.1174    2.0935 H         1 <0>         0.0703
     50 H20         0.2638    9.4901    0.9574 H         1 <0>         0.0661
     51 H21        -2.2598    8.1413   -1.3269 H         1 <0>         0.0563
     52 H22        -1.3141    9.5749   -0.8592 H         1 <0>         0.0572
     53 H23        -0.4977    8.1656   -1.5773 H         1 <0>         0.0580
     54 H24        -2.1117    7.9106    2.3755 H         1 <0>         0.0586
     55 H25        -2.2582    9.4257    1.4529 H         1 <0>         0.0571
     56 H26        -3.1963    7.9933    0.9665 H         1 <0>         0.0596
     57 H27         1.9567    5.0499    2.2651 H         1 <0>         0.0575
     58 H28         2.8768    6.5692    2.1495 H         1 <0>         0.0572
     59 H29         1.1845    6.5934    2.7007 H         1 <0>         0.0596
     60 H30         2.0844    5.7096   -1.3864 H         1 <0>         0.0563
     61 H31         3.4032    6.0523   -0.2410 H         1 <0>         0.0571
     62 H32         2.4789    4.5371   -0.1065 H         1 <0>         0.0590
     63 O3         -3.6757   -0.5857    5.4491 O.co2     1 <0>        -0.7519
@<TRIPOS>BOND
     1    1    2 1
     2    1   31 1
     3    1   32 1
     4    1   33 1
     5    2    7 ar
     6    2    3 ar
     7    3    4 ar
     8    3   34 1
     9    4   26 1
    10    4    5 ar
    11    5    6 ar
    12    5   23 1
    13    6    7 ar
    14    6   35 1
    15    7    8 1
    16    8    9 2
    17    8   15 1
    18    9   10 1
    19   10   11 1
    20   11   12 1
    21   11   36 1
    22   11   37 1
    23   12   14 1
    24   12   13 1
    25   12   38 1
    26   13   14 1
    27   13   39 1
    28   13   40 1
    29   14   41 1
    30   14   42 1
    31   15   20 ar
    32   15   16 ar
    33   16   17 ar
    34   16   43 1
    35   17   18 ar
    36   17   44 1
    37   18   19 ar
    38   18   21 1
    39   19   20 ar
    40   19   45 1
    41   20   46 1
    42   21   22 2
    43   21   63 1
    44   23   24 1
    45   23   29 1
    46   23   30 1
    47   24   25 1
    48   24   47 1
    49   24   48 1
    50   25   26 1
    51   25   49 1
    52   25   50 1
    53   26   27 1
    54   26   28 1
    55   27   51 1
    56   27   52 1
    57   27   53 1
    58   28   54 1
    59   28   55 1
    60   28   56 1
    61   29   57 1
    62   29   58 1
    63   29   59 1
    64   30   60 1
    65   30   61 1
    66   30   62 1
@<TRIPOS>MOLECULE
ZINC03834068
   59    61     0     0     0
SMALL
USER_CHARGES

@<TRIPOS>ATOM
      1 C1         -0.6774   -1.5290   -4.4277 C.3       1 <0>        -0.1472
      2 C2         -1.2117   -0.6977   -3.2597 C.3       1 <0>         0.0692
      3 O1         -0.3097   -0.7928   -2.1554 O.3       1 <0>        -0.2330
      4 N1         -0.7140   -0.0551   -1.0164 N.2       1 <0>        -0.3373
      5 C3          0.0680    0.0199    0.0219 C.2       1 <0>         0.2358
      6 C4         -0.2998    0.8871    1.1651 C.ar      1 <0>        -0.0662
      7 C5          0.4550    0.8517    2.3386 C.ar      1 <0>        -0.0969
      8 C6          0.1171    1.6615    3.3995 C.ar      1 <0>        -0.0839
      9 C7         -0.9882    2.5110    3.3052 C.ar      1 <0>        -0.0880
     10 C8         -1.7467    2.5417    2.1321 C.ar      1 <0>        -0.0949
     11 C9         -1.4044    1.7351    1.0702 C.ar      1 <0>        -0.0926
     12 C10        -1.3544    3.3763    4.4446 C.2       1 <0>         0.4861
     13 O2         -2.3152    4.1150    4.3621 O.co2     1 <0>        -0.6278
     14 C11         1.3259   -0.7621    0.0599 C.ar      1 <0>        -0.0828
     15 C12         1.2863   -2.1528    0.0958 C.ar      1 <0>        -0.0762
     16 C13         2.4610   -2.8886    0.1247 C.ar      1 <0>        -0.0703
     17 C14         3.6768   -2.2389    0.1253 C.ar      1 <0>        -0.0502
     18 C15         3.7198   -0.8497    0.0987 C.ar      1 <0>        -0.1225
     19 C16         2.5586   -0.1102    0.0658 C.ar      1 <0>        -0.0533
     20 C17         2.6197    1.3953    0.0358 C.3       1 <0>        -0.1188
     21 C18         4.9896   -2.9782    0.1453 C.3       1 <0>        -0.0229
     22 C19         4.7869   -4.4215    0.6013 C.3       1 <0>        -0.1116
     23 C20         3.6653   -5.0419   -0.2401 C.3       1 <0>        -0.1100
     24 C21         2.3443   -4.3901    0.1631 C.3       1 <0>        -0.0205
     25 C22         1.9760   -4.8315    1.5810 C.3       1 <0>        -0.1406
     26 C23         1.2459   -4.8357   -0.8044 C.3       1 <0>        -0.1409
     27 C24         5.5926   -2.9735   -1.2608 C.3       1 <0>        -0.1381
     28 C25         5.9497   -2.2754    1.1073 C.3       1 <0>        -0.1426
     29 H1         -0.5874   -2.5711   -4.1208 H         1 <0>         0.0616
     30 H2         -1.3654   -1.4565   -5.2700 H         1 <0>         0.0748
     31 H3          0.3012   -1.1518   -4.7244 H         1 <0>         0.0615
     32 H4         -2.1904   -1.0748   -2.9629 H         1 <0>         0.0534
     33 H5         -1.3017    0.3444   -3.5666 H         1 <0>         0.0530
     34 H6          1.3067    0.1918    2.4129 H         1 <0>         0.1214
     35 H7          0.7041    1.6375    4.3058 H         1 <0>         0.1360
     36 H8         -2.6010    3.1983    2.0583 H         1 <0>         0.1317
     37 H9         -1.9905    1.7587    0.1634 H         1 <0>         0.1256
     38 H10         0.3341   -2.6624    0.0962 H         1 <0>         0.1193
     39 H11         4.6745   -0.3448    0.1036 H         1 <0>         0.1238
     40 H12         2.7024    1.7759    1.0539 H         1 <0>         0.0802
     41 H13         3.4878    1.7123   -0.5422 H         1 <0>         0.0649
     42 H14         1.7132    1.7866   -0.4259 H         1 <0>         0.0656
     43 H15         4.5073   -4.4379    1.6548 H         1 <0>         0.0699
     44 H16         5.7085   -4.9854    0.4574 H         1 <0>         0.0657
     45 H17         3.6173   -6.1148   -0.0540 H         1 <0>         0.0657
     46 H18         3.8562   -4.8610   -1.2979 H         1 <0>         0.0677
     47 H19         1.0237   -4.3837    1.8651 H         1 <0>         0.0568
     48 H20         1.8907   -5.9177    1.6128 H         1 <0>         0.0568
     49 H21         2.7514   -4.5075    2.2753 H         1 <0>         0.0593
     50 H22         1.4995   -4.5147   -1.8147 H         1 <0>         0.0558
     51 H23         1.1585   -5.9219   -0.7794 H         1 <0>         0.0562
     52 H24         0.2973   -4.3879   -0.5082 H         1 <0>         0.0578
     53 H25         5.7574   -1.9450   -1.5820 H         1 <0>         0.0557
     54 H26         6.5428   -3.5075   -1.2505 H         1 <0>         0.0568
     55 H27         4.9073   -3.4645   -1.9517 H         1 <0>         0.0574
     56 H28         5.5195   -2.2676    2.1088 H         1 <0>         0.0584
     57 H29         6.9008   -2.8074    1.1245 H         1 <0>         0.0567
     58 H30         6.1126   -1.2505    0.7738 H         1 <0>         0.0593
     59 O3         -0.6228    3.3464    5.5755 O.co2     1 <0>        -0.7507
@<TRIPOS>BOND
     1    1    2 1
     2    1   29 1
     3    1   30 1
     4    1   31 1
     5    2    3 1
     6    2   32 1
     7    2   33 1
     8    3    4 1
     9    4    5 2
    10    5    6 1
    11    5   14 1
    12    6   11 ar
    13    6    7 ar
    14    7    8 ar
    15    7   34 1
    16    8    9 ar
    17    8   35 1
    18    9   10 ar
    19    9   12 1
    20   10   11 ar
    21   10   36 1
    22   11   37 1
    23   12   13 2
    24   12   59 1
    25   14   19 ar
    26   14   15 ar
    27   15   16 ar
    28   15   38 1
    29   16   24 1
    30   16   17 ar
    31   17   18 ar
    32   17   21 1
    33   18   19 ar
    34   18   39 1
    35   19   20 1
    36   20   40 1
    37   20   41 1
    38   20   42 1
    39   21   22 1
    40   21   27 1
    41   21   28 1
    42   22   23 1
    43   22   43 1
    44   22   44 1
    45   23   24 1
    46   23   45 1
    47   23   46 1
    48   24   25 1
    49   24   26 1
    50   25   47 1
    51   25   48 1
    52   25   49 1
    53   26   50 1
    54   26   51 1
    55   26   52 1
    56   27   53 1
    57   27   54 1
    58   27   55 1
    59   28   56 1
    60   28   57 1
    61   28   58 1
@<TRIPOS>MOLECULE
ZINC03834069
   52    54     0     0     0
SMALL
USER_CHARGES

@<TRIPOS>ATOM
      1 C1          1.4129   -2.1287   -0.1054 C.3       1 <0>        -0.1192
      2 C2          1.2486   -0.6389    0.0511 C.ar      1 <0>        -0.0787
      3 C3          2.3385    0.1491    0.3592 C.ar      1 <0>        -0.1183
      4 C4          2.1970    1.5227    0.5067 C.ar      1 <0>        -0.0661
      5 C5          0.9597    2.1028    0.3371 C.ar      1 <0>        -0.0665
      6 C6         -0.1365    1.3077    0.0296 C.ar      1 <0>        -0.1083
      7 C7          0.0055   -0.0573   -0.1129 C.ar      1 <0>        -0.0705
      8 C8         -1.1906   -0.9111   -0.4468 C.3       1 <0>        -0.0383
      9 C9         -1.2729   -1.0985   -1.9398 C.ar      1 <0>        -0.0843
     10 C10        -1.8881   -0.1369   -2.7218 C.ar      1 <0>        -0.1321
     11 C11        -1.9627   -0.2998   -4.0895 C.ar      1 <0>        -0.0759
     12 C12        -1.4250   -1.4434   -4.6834 C.ar      1 <0>        -0.1153
     13 C13        -0.8104   -2.4124   -3.8878 C.ar      1 <0>        -0.0858
     14 C14        -0.7381   -2.2342   -2.5219 C.ar      1 <0>        -0.1350
     15 C15        -1.5058   -1.6272   -6.1470 C.2       1 <0>         0.4882
     16 O1         -1.0368   -2.6229   -6.6609 O.co2     1 <0>        -0.6329
     17 C16         0.7360    3.5869    0.4651 C.3       1 <0>        -0.0216
     18 C17         1.8938    4.2415    1.2160 C.3       1 <0>        -0.1097
     19 C18         3.2071    3.8025    0.5579 C.3       1 <0>        -0.1120
     20 C19         3.4251    2.3208    0.8586 C.3       1 <0>        -0.0214
     21 C20         3.7303    2.1466    2.3477 C.3       1 <0>        -0.1370
     22 C21         4.6111    1.8096    0.0382 C.3       1 <0>        -0.1423
     23 C22         0.6276    4.2031   -0.9311 C.3       1 <0>        -0.1405
     24 C23        -0.5661    3.8370    1.2286 C.3       1 <0>        -0.1412
     25 H1          1.5473   -2.3706   -1.1597 H         1 <0>         0.0760
     26 H2          2.2860   -2.4591    0.4573 H         1 <0>         0.0597
     27 H3          0.5243   -2.6340    0.2729 H         1 <0>         0.0684
     28 H4          3.3095   -0.3060    0.4870 H         1 <0>         0.1181
     29 H5         -1.1072    1.7620   -0.1035 H         1 <0>         0.1197
     30 H6         -1.0896   -1.8829    0.0364 H         1 <0>         0.0791
     31 H7         -2.0972   -0.4212   -0.0916 H         1 <0>         0.0752
     32 H8         -2.3071    0.7453   -2.2606 H         1 <0>         0.1116
     33 H9         -2.4391    0.4537   -4.6992 H         1 <0>         0.1281
     34 H10        -0.3922   -3.2991   -4.3409 H         1 <0>         0.1245
     35 H11        -0.2627   -2.9827   -1.9053 H         1 <0>         0.1150
     36 H12         1.8004    5.3261    1.1612 H         1 <0>         0.0646
     37 H13         1.8811    3.9243    2.2588 H         1 <0>         0.0669
     38 H14         3.1460    3.9537   -0.5198 H         1 <0>         0.0694
     39 H15         4.0339    4.3852    0.9640 H         1 <0>         0.0643
     40 H16         3.9061    1.0924    2.5617 H         1 <0>         0.0546
     41 H17         4.6187    2.7229    2.6063 H         1 <0>         0.0553
     42 H18         2.8837    2.5006    2.9359 H         1 <0>         0.0570
     43 H19         4.3939    1.9227   -1.0239 H         1 <0>         0.0574
     44 H20         5.5020    2.3848    0.2901 H         1 <0>         0.0555
     45 H21         4.7823    0.7571    0.2640 H         1 <0>         0.0579
     46 H22        -0.2100    3.7521   -1.4632 H         1 <0>         0.0584
     47 H23         0.4656    5.2774   -0.8425 H         1 <0>         0.0559
     48 H24         1.5498    4.0190   -1.4822 H         1 <0>         0.0581
     49 H25        -0.4969    3.3911    2.2208 H         1 <0>         0.0546
     50 H26        -0.7315    4.9102    1.3233 H         1 <0>         0.0558
     51 H27        -1.3976    3.3877    0.6856 H         1 <0>         0.0594
     52 O2         -2.0994   -0.6904   -6.9117 O.co2     1 <0>        -0.7559
@<TRIPOS>BOND
     1    1    2 1
     2    1   25 1
     3    1   26 1
     4    1   27 1
     5    2    7 ar
     6    2    3 ar
     7    3    4 ar
     8    3   28 1
     9    4   20 1
    10    4    5 ar
    11    5    6 ar
    12    5   17 1
    13    6    7 ar
    14    6   29 1
    15    7    8 1
    16    8    9 1
    17    8   30 1
    18    8   31 1
    19    9   14 ar
    20    9   10 ar
    21   10   11 ar
    22   10   32 1
    23   11   12 ar
    24   11   33 1
    25   12   13 ar
    26   12   15 1
    27   13   14 ar
    28   13   34 1
    29   14   35 1
    30   15   16 2
    31   15   52 1
    32   17   18 1
    33   17   23 1
    34   17   24 1
    35   18   19 1
    36   18   36 1
    37   18   37 1
    38   19   20 1
    39   19   38 1
    40   19   39 1
    41   20   21 1
    42   20   22 1
    43   21   40 1
    44   21   41 1
    45   21   42 1
    46   22   43 1
    47   22   44 1
    48   22   45 1
    49   23   46 1
    50   23   47 1
    51   23   48 1
    52   24   49 1
    53   24   50 1
    54   24   51 1
@<TRIPOS>MOLECULE
ZINC03834070
   51    53     0     0     0
SMALL
USER_CHARGES

@<TRIPOS>ATOM
      1 C1          0.9542   -2.5407    0.0014 C.3       1 <0>        -0.1229
      2 C2          1.1623   -1.0498    0.0728 C.ar      1 <0>        -0.0506
      3 C3          2.4094   -0.5374    0.3493 C.ar      1 <0>        -0.1203
      4 C4          2.6146    0.8363    0.4192 C.ar      1 <0>        -0.0474
      5 C5          1.5622    1.7010    0.2029 C.ar      1 <0>        -0.0692
      6 C6          0.3015    1.1970   -0.0737 C.ar      1 <0>        -0.0796
      7 C7          0.0905   -0.1797   -0.1410 C.ar      1 <0>        -0.1389
      8 C8         -1.2549   -0.7136   -0.4353 C.2       1 <0>         0.4514
      9 O1         -2.1123   -0.7087    0.4259 O.2       1 <0>        -0.4532
     10 C9         -1.5587   -1.2541   -1.7785 C.ar      1 <0>        -0.1784
     11 C10        -0.6141   -1.1528   -2.8021 C.ar      1 <0>        -0.0815
     12 C11        -0.8948   -1.6618   -4.0513 C.ar      1 <0>        -0.0935
     13 C12        -2.1284   -2.2679   -4.2972 C.ar      1 <0>        -0.0751
     14 C13        -3.0751   -2.3641   -3.2755 C.ar      1 <0>        -0.1024
     15 C14        -2.7923   -1.8607   -2.0245 C.ar      1 <0>        -0.0756
     16 C15        -2.4321   -2.8084   -5.6402 C.2       1 <0>         0.4850
     17 O2         -3.5049   -3.3359   -5.8541 O.co2     1 <0>        -0.6247
     18 C16         1.7215    3.1985    0.2471 C.3       1 <0>        -0.0218
     19 C17         3.0087    3.5804    0.9749 C.3       1 <0>        -0.1106
     20 C18         4.1668    2.7882    0.3569 C.3       1 <0>        -0.1120
     21 C19         4.0051    1.3190    0.7420 C.3       1 <0>        -0.0239
     22 C20         4.2591    1.1586    2.2422 C.3       1 <0>        -0.1388
     23 C21         5.0230    0.4804   -0.0335 C.3       1 <0>        -0.1430
     24 C22         1.7693    3.7432   -1.1818 C.3       1 <0>        -0.1412
     25 C23         0.5266    3.8116    0.9801 C.3       1 <0>        -0.1439
     26 H1          1.0267   -2.8685   -1.0356 H         1 <0>         0.0813
     27 H2          1.7177   -3.0430    0.5954 H         1 <0>         0.0695
     28 H3         -0.0323   -2.7890    0.3929 H         1 <0>         0.0656
     29 H4          3.2382   -1.2100    0.5143 H         1 <0>         0.1266
     30 H5         -0.5221    1.8748   -0.2427 H         1 <0>         0.1252
     31 H6          0.3381   -0.6794   -2.6133 H         1 <0>         0.1232
     32 H7         -0.1623   -1.5881   -4.8415 H         1 <0>         0.1368
     33 H8         -4.0290   -2.8336   -3.4657 H         1 <0>         0.1340
     34 H9         -3.5245   -1.9355   -1.2342 H         1 <0>         0.1273
     35 H10         3.1922    4.6487    0.8602 H         1 <0>         0.0670
     36 H11         2.9188    3.3350    2.0331 H         1 <0>         0.0683
     37 H12         4.1424    2.8887   -0.7282 H         1 <0>         0.0706
     38 H13         5.1151    3.1660    0.7392 H         1 <0>         0.0666
     39 H14         4.1643    0.1079    2.5165 H         1 <0>         0.0562
     40 H15         5.2642    1.5068    2.4799 H         1 <0>         0.0578
     41 H16         3.5297    1.7467    2.7992 H         1 <0>         0.0582
     42 H17         4.8395    0.5838   -1.1030 H         1 <0>         0.0587
     43 H18         6.0304    0.8266    0.1974 H         1 <0>         0.0576
     44 H19         4.9242   -0.5668    0.2525 H         1 <0>         0.0593
     45 H20         0.8437    3.4894   -1.6985 H         1 <0>         0.0581
     46 H21         1.8846    4.8267   -1.1540 H         1 <0>         0.0581
     47 H22         2.6137    3.3014   -1.7110 H         1 <0>         0.0596
     48 H23         0.4830    3.4187    1.9959 H         1 <0>         0.0566
     49 H24         0.6383    4.8953    1.0142 H         1 <0>         0.0583
     50 H25        -0.3927    3.5575    0.4524 H         1 <0>         0.0594
     51 O3         -1.5189   -2.7156   -6.6259 O.co2     1 <0>        -0.7477
@<TRIPOS>BOND
     1    1    2 1
     2    1   26 1
     3    1   27 1
     4    1   28 1
     5    2    7 ar
     6    2    3 ar
     7    3    4 ar
     8    3   29 1
     9    4   21 1
    10    4    5 ar
    11    5    6 ar
    12    5   18 1
    13    6    7 ar
    14    6   30 1
    15    7    8 1
    16    8    9 2
    17    8   10 1
    18   10   15 ar
    19   10   11 ar
    20   11   12 ar
    21   11   31 1
    22   12   13 ar
    23   12   32 1
    24   13   14 ar
    25   13   16 1
    26   14   15 ar
    27   14   33 1
    28   15   34 1
    29   16   17 2
    30   16   51 1
    31   18   19 1
    32   18   24 1
    33   18   25 1
    34   19   20 1
    35   19   35 1
    36   19   36 1
    37   20   21 1
    38   20   37 1
    39   20   38 1
    40   21   22 1
    41   21   23 1
    42   22   39 1
    43   22   40 1
    44   22   41 1
    45   23   42 1
    46   23   43 1
    47   23   44 1
    48   24   45 1
    49   24   46 1
    50   24   47 1
    51   25   48 1
    52   25   49 1
    53   25   50 1
@<TRIPOS>MOLECULE
ZINC03834071
   65    67     0     0     0
SMALL
USER_CHARGES

@<TRIPOS>ATOM
      1 C1          4.2591    4.7763   -3.3646 C.3       1 <0>        -0.1522
      2 C2          2.9480    3.9897   -3.4216 C.3       1 <0>        -0.1177
      3 C3          2.8084    3.1388   -2.1577 C.3       1 <0>        -0.1199
      4 C4          1.4973    2.3522   -2.2147 C.3       1 <0>         0.0735
      5 O1          1.3670    1.5575   -1.0342 O.3       1 <0>        -0.2252
      6 N1          0.1804    0.7862   -0.9873 N.2       1 <0>        -0.3367
      7 C5         -0.0570    0.0186    0.0372 C.2       1 <0>         0.2321
      8 C6          0.9755   -0.1593    1.0844 C.ar      1 <0>        -0.1055
      9 C7          2.3254   -0.2039    0.7325 C.ar      1 <0>        -0.0910
     10 C8          3.2860   -0.3635    1.7058 C.ar      1 <0>        -0.0843
     11 C9          2.9085   -0.4925    3.0449 C.ar      1 <0>        -0.0922
     12 C10         1.5565   -0.4535    3.3957 C.ar      1 <0>        -0.0938
     13 C11         0.5975   -0.2881    2.4218 C.ar      1 <0>        -0.1009
     14 C12         3.9378   -0.6694    4.0890 C.2       1 <0>         0.4867
     15 O2          3.6093   -0.7811    5.2531 O.co2     1 <0>        -0.6292
     16 C13        -1.3599   -0.6769    0.1556 C.ar      1 <0>        -0.0379
     17 C14        -2.5316    0.0537    0.3295 C.ar      1 <0>        -0.0806
     18 C15        -3.7535   -0.5927    0.4350 C.ar      1 <0>        -0.0712
     19 C16        -3.8084   -1.9689    0.3739 C.ar      1 <0>        -0.0480
     20 C17        -2.6389   -2.7020    0.2090 C.ar      1 <0>        -0.1207
     21 C18        -1.4209   -2.0689    0.0996 C.ar      1 <0>        -0.0488
     22 C19        -0.1609   -2.8759   -0.0803 C.3       1 <0>        -0.1183
     23 C20        -5.1038   -2.7324    0.4709 C.3       1 <0>        -0.0235
     24 C21        -6.2017   -1.8547    1.0680 C.3       1 <0>        -0.1118
     25 C22        -6.2426   -0.5343    0.2898 C.3       1 <0>        -0.1105
     26 C23        -4.9813    0.2599    0.6227 C.3       1 <0>        -0.0206
     27 C24        -5.0509    0.7312    2.0766 C.3       1 <0>        -0.1410
     28 C25        -4.8948    1.4786   -0.2983 C.3       1 <0>        -0.1429
     29 C26        -5.5267   -3.1878   -0.9272 C.3       1 <0>        -0.1387
     30 C27        -4.9000   -3.9605    1.3603 C.3       1 <0>        -0.1430
     31 H1          4.3585    5.3825   -4.2650 H         1 <0>         0.0542
     32 H2          4.2560    5.4248   -2.4885 H         1 <0>         0.0559
     33 H3          5.0968    4.0820   -3.2998 H         1 <0>         0.0565
     34 H4          2.9511    3.3412   -4.2977 H         1 <0>         0.0627
     35 H5          2.1103    4.6840   -3.4865 H         1 <0>         0.0623
     36 H6          2.8053    3.7873   -1.2816 H         1 <0>         0.0724
     37 H7          3.6462    2.4445   -2.0928 H         1 <0>         0.0731
     38 H8          1.5005    1.7037   -3.0908 H         1 <0>         0.0518
     39 H9          0.6596    3.0466   -2.2795 H         1 <0>         0.0515
     40 H10         2.6168   -0.1090   -0.3031 H         1 <0>         0.1204
     41 H11         4.3308   -0.3935    1.4338 H         1 <0>         0.1327
     42 H12         1.2639   -0.5527    4.4305 H         1 <0>         0.1292
     43 H13        -0.4475   -0.2576    2.6928 H         1 <0>         0.1173
     44 H14        -2.4893    1.1318    0.3779 H         1 <0>         0.1242
     45 H15        -2.6861   -3.7801    0.1659 H         1 <0>         0.1260
     46 H16         0.3138   -3.0291    0.8889 H         1 <0>         0.0801
     47 H17        -0.4080   -3.8419   -0.5206 H         1 <0>         0.0660
     48 H18         0.5226   -2.3404   -0.7391 H         1 <0>         0.0656
     49 H19        -5.9827   -1.6558    2.1171 H         1 <0>         0.0701
     50 H20        -7.1634   -2.3607    0.9834 H         1 <0>         0.0661
     51 H21        -7.1239    0.0368    0.5818 H         1 <0>         0.0662
     52 H22        -6.2759   -0.7391   -0.7803 H         1 <0>         0.0683
     53 H23        -4.1612    1.3151    2.3122 H         1 <0>         0.0573
     54 H24        -5.9382    1.3486    2.2163 H         1 <0>         0.0572
     55 H25        -5.1028   -0.1344    2.7370 H         1 <0>         0.0595
     56 H26        -4.8352    1.1472   -1.3349 H         1 <0>         0.0564
     57 H27        -5.7817    2.0982   -0.1653 H         1 <0>         0.0571
     58 H28        -4.0059    2.0588   -0.0506 H         1 <0>         0.0589
     59 H29        -4.7542   -3.8309   -1.3490 H         1 <0>         0.0563
     60 H30        -6.4637   -3.7407   -0.8613 H         1 <0>         0.0572
     61 H31        -5.6633   -2.3162   -1.5674 H         1 <0>         0.0581
     62 H32        -4.5889   -3.6412    2.3550 H         1 <0>         0.0584
     63 H33        -5.8353   -4.5157    1.4330 H         1 <0>         0.0570
     64 H34        -4.1309   -4.5996    0.9267 H         1 <0>         0.0596
     65 O3          5.2413   -0.7069    3.7504 O.co2     1 <0>        -0.7519
@<TRIPOS>BOND
     1    1    2 1
     2    1   31 1
     3    1   32 1
     4    1   33 1
     5    2    3 1
     6    2   34 1
     7    2   35 1
     8    3    4 1
     9    3   36 1
    10    3   37 1
    11    4    5 1
    12    4   38 1
    13    4   39 1
    14    5    6 1
    15    6    7 2
    16    7    8 1
    17    7   16 1
    18    8   13 ar
    19    8    9 ar
    20    9   10 ar
    21    9   40 1
    22   10   11 ar
    23   10   41 1
    24   11   12 ar
    25   11   14 1
    26   12   13 ar
    27   12   42 1
    28   13   43 1
    29   14   15 2
    30   14   65 1
    31   16   21 ar
    32   16   17 ar
    33   17   18 ar
    34   17   44 1
    35   18   26 1
    36   18   19 ar
    37   19   20 ar
    38   19   23 1
    39   20   21 ar
    40   20   45 1
    41   21   22 1
    42   22   46 1
    43   22   47 1
    44   22   48 1
    45   23   24 1
    46   23   29 1
    47   23   30 1
    48   24   25 1
    49   24   49 1
    50   24   50 1
    51   25   26 1
    52   25   51 1
    53   25   52 1
    54   26   27 1
    55   26   28 1
    56   27   53 1
    57   27   54 1
    58   27   55 1
    59   28   56 1
    60   28   57 1
    61   28   58 1
    62   29   59 1
    63   29   60 1
    64   29   61 1
    65   30   62 1
    66   30   63 1
    67   30   64 1
@<TRIPOS>MOLECULE
ZINC03834073
   62    64     0     0     0
SMALL
USER_CHARGES

@<TRIPOS>ATOM
      1 C1         -0.1611   -2.8762   -0.0797 C.3       1 <0>        -0.1178
      2 C2         -1.4208   -2.0688    0.0994 C.ar      1 <0>        -0.0470
      3 C3         -2.6391   -2.7014    0.2085 C.ar      1 <0>        -0.1190
      4 C4         -3.8084   -1.9678    0.3727 C.ar      1 <0>        -0.0364
      5 C5         -3.7530   -0.5917    0.4336 C.ar      1 <0>        -0.0680
      6 C6         -2.5309    0.0543    0.3284 C.ar      1 <0>        -0.0768
      7 C7         -1.3593   -0.6768    0.1552 C.ar      1 <0>        -0.0593
      8 C8         -0.0561    0.0183    0.0372 C.2       1 <0>         0.2683
      9 N1          0.1820    0.7855   -0.9874 N.2       1 <0>        -0.3331
     10 O1          1.3689    1.5564   -1.0339 O.3       1 <0>        -0.2567
     11 C9          1.5000    2.3509   -2.2145 C.3       1 <0>         0.0380
     12 C10         2.8113    3.1370   -2.1571 C.3       1 <0>         0.0067
     13 C11         0.9759   -0.1599    1.0848 C.ar      1 <0>        -0.1154
     14 C12         2.3259   -0.2056    0.7334 C.ar      1 <0>        -0.1035
     15 C13         3.2860   -0.3653    1.7072 C.ar      1 <0>        -0.0912
     16 C14         2.9079   -0.4933    3.0462 C.ar      1 <0>        -0.0797
     17 C15         1.5558   -0.4532    3.3965 C.ar      1 <0>        -0.0867
     18 C16         0.5973   -0.2876    2.4222 C.ar      1 <0>        -0.0896
     19 C17         3.9368   -0.6704    4.0908 C.2       1 <0>         0.4814
     20 O2          3.6077   -0.7812    5.2549 O.co2     1 <0>        -0.6172
     21 C18        -4.9806    0.2614    0.6205 C.3       1 <0>        -0.0221
     22 C19        -6.2421   -0.5324    0.2873 C.3       1 <0>        -0.1121
     23 C20        -6.2019   -1.8527    1.0658 C.3       1 <0>        -0.1136
     24 C21        -5.1041   -2.7308    0.4693 C.3       1 <0>        -0.0261
     25 C22        -5.5265   -3.1864   -0.9289 C.3       1 <0>        -0.1396
     26 C23        -4.9012   -3.9588    1.3591 C.3       1 <0>        -0.1445
     27 C24        -5.0507    0.7331    2.0743 C.3       1 <0>        -0.1419
     28 C25        -4.8933    1.4799   -0.3007 C.3       1 <0>        -0.1421
     29 H1          0.3132   -3.0294    0.8897 H         1 <0>         0.0808
     30 H2         -0.4082   -3.8423   -0.5199 H         1 <0>         0.0700
     31 H3          0.5229   -2.3411   -0.7384 H         1 <0>         0.0607
     32 H4         -2.6866   -3.7795    0.1655 H         1 <0>         0.1298
     33 H5         -2.4882    1.1324    0.3766 H         1 <0>         0.1248
     34 H6          1.5032    1.7022   -3.0904 H         1 <0>         0.0781
     35 H7          0.6625    3.0455   -2.2798 H         1 <0>         0.1005
     36 H8          2.8698    3.8090   -3.0133 H         1 <0>         0.1508
     37 H9          2.8464    3.7184   -1.2358 H         1 <0>         0.1408
     38 H10         3.8986    1.6071   -3.0032 H         1 <0>         0.4349
     39 H11         4.8226    2.6976   -2.1530 H         1 <0>         0.4404
     40 H12         2.6176   -0.1114   -0.3021 H         1 <0>         0.1075
     41 H13         4.3308   -0.3962    1.4356 H         1 <0>         0.1337
     42 H14         1.2628   -0.5517    4.4313 H         1 <0>         0.1358
     43 H15        -0.4478   -0.2563    2.6928 H         1 <0>         0.1233
     44 H16        -7.1233    0.0391    0.5788 H         1 <0>         0.0693
     45 H17        -6.2749   -0.7374   -0.7828 H         1 <0>         0.0692
     46 H18        -5.9833   -1.6536    2.1149 H         1 <0>         0.0712
     47 H19        -7.1638   -2.3583    0.9809 H         1 <0>         0.0698
     48 H20        -4.7542   -3.8299   -1.3502 H         1 <0>         0.0565
     49 H21        -6.4638   -3.7390   -0.8632 H         1 <0>         0.0609
     50 H22        -5.6626   -2.3149   -1.5693 H         1 <0>         0.0582
     51 H23        -4.5903   -3.6394    2.3538 H         1 <0>         0.0591
     52 H24        -5.8366   -4.5137    1.4314 H         1 <0>         0.0608
     53 H25        -4.1320   -4.5983    0.9259 H         1 <0>         0.0597
     54 H26        -4.1608    1.3167    2.3102 H         1 <0>         0.0559
     55 H27        -5.9378    1.3508    2.2135 H         1 <0>         0.0603
     56 H28        -5.1032   -0.1323    2.7349 H         1 <0>         0.0608
     57 H29        -4.8333    1.1482   -1.3372 H         1 <0>         0.0563
     58 H30        -5.7800    2.0998   -0.1682 H         1 <0>         0.0601
     59 H31        -4.0042    2.0598   -0.0528 H         1 <0>         0.0564
     60 N2          3.9399    2.1895   -2.1685 N.4       1 <0>        -0.6485
     61 H32         3.8845    1.5887   -1.3377 H         1 <0>         0.4472
     62 O3          5.2403   -0.7090    3.7526 O.co2     1 <0>        -0.7498
@<TRIPOS>BOND
     1    1    2 1
     2    1   29 1
     3    1   30 1
     4    1   31 1
     5    2    7 ar
     6    2    3 ar
     7    3    4 ar
     8    3   32 1
     9    4   24 1
    10    4    5 ar
    11    5    6 ar
    12    5   21 1
    13    6    7 ar
    14    6   33 1
    15    7    8 1
    16    8    9 2
    17    8   13 1
    18    9   10 1
    19   10   11 1
    20   11   12 1
    21   11   34 1
    22   11   35 1
    23   12   36 1
    24   12   37 1
    25   12   60 1
    26   13   18 ar
    27   13   14 ar
    28   14   15 ar
    29   14   40 1
    30   15   16 ar
    31   15   41 1
    32   16   17 ar
    33   16   19 1
    34   17   18 ar
    35   17   42 1
    36   18   43 1
    37   19   20 2
    38   19   62 1
    39   21   22 1
    40   21   27 1
    41   21   28 1
    42   22   23 1
    43   22   44 1
    44   22   45 1
    45   23   24 1
    46   23   46 1
    47   23   47 1
    48   24   25 1
    49   24   26 1
    50   25   48 1
    51   25   49 1
    52   25   50 1
    53   26   51 1
    54   26   52 1
    55   26   53 1
    56   27   54 1
    57   27   55 1
    58   27   56 1
    59   28   57 1
    60   28   58 1
    61   28   59 1
    62   38   60 1
    63   39   60 1
    64   60   61 1
@<TRIPOS>MOLECULE
ZINC03834074
   58    60     0     0     0
SMALL
USER_CHARGES

@<TRIPOS>ATOM
      1 C1         -0.1612   -2.8772   -0.0776 C.3       1 <0>        -0.1179
      2 C2         -1.4204   -2.0684    0.0998 C.ar      1 <0>        -0.0509
      3 C3         -2.6393   -2.6998    0.2083 C.ar      1 <0>        -0.1223
      4 C4         -3.8081   -1.9650    0.3710 C.ar      1 <0>        -0.0580
      5 C5         -3.7515   -0.5889    0.4307 C.ar      1 <0>        -0.0730
      6 C6         -2.5287    0.0559    0.3259 C.ar      1 <0>        -0.0834
      7 C7         -1.3576   -0.6764    0.1544 C.ar      1 <0>        -0.0201
      8 C8         -0.0537    0.0173    0.0368 C.2       1 <0>         0.2028
      9 N1          0.1859    0.7835   -0.9881 N.2       1 <0>        -0.3407
     10 O1          1.3735    1.5533   -1.0343 O.3       1 <0>        -0.1873
     11 C9          1.5064    2.3467   -2.2154 C.3       1 <0>         0.0303
     12 C10         2.7986    3.1199   -2.1585 C.2       1 <0>         0.4697
     13 O2          3.5308    3.0034   -1.2044 O.co2     1 <0>        -0.6060
     14 C11         0.9773   -0.1609    1.0855 C.ar      1 <0>        -0.0960
     15 C12         2.3274   -0.2094    0.7351 C.ar      1 <0>        -0.0789
     16 C13         3.2866   -0.3693    1.7097 C.ar      1 <0>        -0.0765
     17 C14         2.9074   -0.4946    3.0487 C.ar      1 <0>        -0.1018
     18 C15         1.5552   -0.4517    3.3980 C.ar      1 <0>        -0.0985
     19 C16         0.5976   -0.2860    2.4227 C.ar      1 <0>        -0.1094
     20 C17         3.9353   -0.6717    4.0942 C.2       1 <0>         0.4914
     21 O3          3.6052   -0.7802    5.2583 O.co2     1 <0>        -0.6393
     22 C18        -4.9785    0.2655    0.6158 C.3       1 <0>        -0.0198
     23 C19        -6.2404   -0.5274    0.2822 C.3       1 <0>        -0.1090
     24 C20        -6.2021   -1.8470    1.0619 C.3       1 <0>        -0.1103
     25 C21        -5.1046   -2.7267    0.4671 C.3       1 <0>        -0.0211
     26 C22        -5.5263   -3.1831   -0.9310 C.3       1 <0>        -0.1380
     27 C23        -4.9035   -3.9541    1.3582 C.3       1 <0>        -0.1416
     28 C24        -5.0493    0.7385    2.0691 C.3       1 <0>        -0.1402
     29 C25        -4.8892    1.4831   -0.3064 C.3       1 <0>        -0.1440
     30 H1          0.3121   -3.0300    0.8923 H         1 <0>         0.0795
     31 H2         -0.4089   -3.8434   -0.5172 H         1 <0>         0.0623
     32 H3          0.5239   -2.3433   -0.7361 H         1 <0>         0.0691
     33 H4         -2.6878   -3.7779    0.1663 H         1 <0>         0.1225
     34 H5         -2.4850    1.1340    0.3733 H         1 <0>         0.1246
     35 H6          1.5097    1.6973   -3.0909 H         1 <0>         0.0558
     36 H7          0.6696    3.0420   -2.2820 H         1 <0>         0.0553
     37 H8          2.6201   -0.1174   -0.3004 H         1 <0>         0.1244
     38 H9          4.3316   -0.4023    1.4389 H         1 <0>         0.1320
     39 H10         1.2612   -0.5481    4.4328 H         1 <0>         0.1239
     40 H11        -0.4476   -0.2524    2.6926 H         1 <0>         0.1125
     41 H12        -7.1213    0.0451    0.5725 H         1 <0>         0.0636
     42 H13        -6.2725   -0.7333   -0.7877 H         1 <0>         0.0676
     43 H14        -5.9842   -1.6473    2.1111 H         1 <0>         0.0692
     44 H15        -7.1644   -2.3518    0.9766 H         1 <0>         0.0628
     45 H16        -4.7541   -3.8277   -1.3511 H         1 <0>         0.0561
     46 H17        -6.4641   -3.7348   -0.8657 H         1 <0>         0.0539
     47 H18        -5.6610   -2.3121   -1.5723 H         1 <0>         0.0581
     48 H19        -4.5932   -3.6341    2.3528 H         1 <0>         0.0579
     49 H20        -5.8396   -4.5080    1.4302 H         1 <0>         0.0537
     50 H21        -4.1346   -4.5947    0.9262 H         1 <0>         0.0593
     51 H22        -4.1591    1.3216    2.3052 H         1 <0>         0.0590
     52 H23        -5.9360    1.3572    2.2070 H         1 <0>         0.0547
     53 H24        -5.1032   -0.1263    2.7304 H         1 <0>         0.0580
     54 H25        -4.8287    1.1505   -1.3426 H         1 <0>         0.0568
     55 H26        -5.7755    2.1040   -0.1753 H         1 <0>         0.0547
     56 H27        -3.9999    2.0624   -0.0582 H         1 <0>         0.0618
     57 O4          3.1363    3.9379   -3.1677 O.co2     1 <0>        -0.7664
     58 O5          5.2390   -0.7131    3.7570 O.co2     1 <0>        -0.7536
@<TRIPOS>BOND
     1    1    2 1
     2    1   30 1
     3    1   31 1
     4    1   32 1
     5    2    7 ar
     6    2    3 ar
     7    3    4 ar
     8    3   33 1
     9    4   25 1
    10    4    5 ar
    11    5    6 ar
    12    5   22 1
    13    6    7 ar
    14    6   34 1
    15    7    8 1
    16    8    9 2
    17    8   14 1
    18    9   10 1
    19   10   11 1
    20   11   12 1
    21   11   35 1
    22   11   36 1
    23   12   13 2
    24   12   57 1
    25   14   19 ar
    26   14   15 ar
    27   15   16 ar
    28   15   37 1
    29   16   17 ar
    30   16   38 1
    31   17   18 ar
    32   17   20 1
    33   18   19 ar
    34   18   39 1
    35   19   40 1
    36   20   21 2
    37   20   58 1
    38   22   23 1
    39   22   28 1
    40   22   29 1
    41   23   24 1
    42   23   41 1
    43   23   42 1
    44   24   25 1
    45   24   43 1
    46   24   44 1
    47   25   26 1
    48   25   27 1
    49   26   45 1
    50   26   46 1
    51   26   47 1
    52   27   48 1
    53   27   49 1
    54   27   50 1
    55   28   51 1
    56   28   52 1
    57   28   53 1
    58   29   54 1
    59   29   55 1
    60   29   56 1
@<TRIPOS>MOLECULE
ZINC03834076
   50    52     0     0     0
SMALL
USER_CHARGES

@<TRIPOS>ATOM
      1 C1         -3.0391   -4.3686    3.5668 C.3       1 <0>        -0.1434
      2 C2         -3.7231   -3.7147    2.3645 C.3       1 <0>        -0.0247
      3 C3         -5.0120   -3.0374    2.8253 C.3       1 <0>        -0.1116
      4 C4         -5.5680   -2.2117    1.6592 C.3       1 <0>        -0.1113
      5 C5         -4.6435   -1.0177    1.4309 C.3       1 <0>        -0.0211
      6 C6         -3.2116   -1.4710    1.3122 C.ar      1 <0>        -0.0721
      7 C7         -2.7869   -2.7083    1.7471 C.ar      1 <0>        -0.0475
      8 C8         -1.4497   -3.0660    1.6188 C.ar      1 <0>        -0.1225
      9 C9         -0.5409   -2.2007    1.0517 C.ar      1 <0>        -0.0923
     10 C10        -0.9645   -0.9471    0.6117 C.ar      1 <0>        -0.0459
     11 C11        -2.3034   -0.5908    0.7445 C.ar      1 <0>        -0.0776
     12 C12         0.0021   -0.0041    0.0020 C.2       1 <0>         0.2265
     13 N1         -0.4234    1.0873   -0.5664 N.2       1 <0>        -0.3417
     14 O1          0.5032    2.0602   -1.0135 O.3       1 <0>        -0.3939
     15 C13         1.4524   -0.3030    0.0391 C.ar      1 <0>        -0.1096
     16 C14         2.2676    0.0628   -1.0332 C.ar      1 <0>        -0.0882
     17 C15         3.6167   -0.2095   -0.9970 C.ar      1 <0>        -0.0848
     18 C16         4.1679   -0.8621    0.1088 C.ar      1 <0>        -0.0922
     19 C17         3.3501   -1.2330    1.1793 C.ar      1 <0>        -0.0943
     20 C18         2.0021   -0.9553    1.1439 C.ar      1 <0>        -0.1127
     21 C19         5.6140   -1.1592    0.1462 C.2       1 <0>         0.4866
     22 O2          6.0929   -1.7262    1.1079 O.co2     1 <0>        -0.6286
     23 C20        -4.7700   -0.0493    2.6087 C.3       1 <0>        -0.1401
     24 C21        -5.0540   -0.3008    0.1431 C.3       1 <0>        -0.1436
     25 C22        -4.0604   -4.7899    1.3296 C.3       1 <0>        -0.1398
     26 H1         -3.7059   -5.1116    4.0043 H         1 <0>         0.0575
     27 H2         -2.1185   -4.8533    3.2418 H         1 <0>         0.0613
     28 H3         -2.8057   -3.6069    4.3107 H         1 <0>         0.0574
     29 H4         -4.8007   -2.3827    3.6708 H         1 <0>         0.0693
     30 H5         -5.7398   -3.7936    3.1196 H         1 <0>         0.0665
     31 H6         -6.5698   -1.8588    1.9039 H         1 <0>         0.0664
     32 H7         -5.6046   -2.8251    0.7589 H         1 <0>         0.0691
     33 H8         -1.1207   -4.0351    1.9640 H         1 <0>         0.1283
     34 H9          0.4949   -2.4897    0.9519 H         1 <0>         0.1412
     35 H10        -2.6371    0.3778    0.4027 H         1 <0>         0.1319
     36 H11         0.0935    2.8351   -1.4220 H         1 <0>         0.3946
     37 H12         1.8407    0.5636   -1.8896 H         1 <0>         0.1231
     38 H13         4.2480    0.0771   -1.8250 H         1 <0>         0.1340
     39 H14         3.7754   -1.7371    2.0346 H         1 <0>         0.1312
     40 H15         1.3699   -1.2419    1.9712 H         1 <0>         0.1247
     41 H16        -4.1263    0.8140    2.4400 H         1 <0>         0.0567
     42 H17        -5.8049    0.2811    2.6978 H         1 <0>         0.0574
     43 H18        -4.4690   -0.5530    3.5272 H         1 <0>         0.0585
     44 H19        -4.9559   -0.9842   -0.7003 H         1 <0>         0.0567
     45 H20        -6.0897    0.0289    0.2251 H         1 <0>         0.0572
     46 H21        -4.4088    0.5638   -0.0129 H         1 <0>         0.0606
     47 H22        -4.5566   -4.3292    0.4755 H         1 <0>         0.0584
     48 H23        -3.1427   -5.2758    0.9982 H         1 <0>         0.0579
     49 H24        -4.7223   -5.5309    1.7781 H         1 <0>         0.0578
     50 O3          6.4022   -0.8015   -0.8862 O.co2     1 <0>        -0.7512
@<TRIPOS>BOND
     1    1    2 1
     2    1   26 1
     3    1   27 1
     4    1   28 1
     5    2    7 1
     6    2    3 1
     7    2   25 1
     8    3    4 1
     9    3   29 1
    10    3   30 1
    11    4    5 1
    12    4   31 1
    13    4   32 1
    14    5    6 1
    15    5   23 1
    16    5   24 1
    17    6   11 ar
    18    6    7 ar
    19    7    8 ar
    20    8    9 ar
    21    8   33 1
    22    9   10 ar
    23    9   34 1
    24   10   11 ar
    25   10   12 1
    26   11   35 1
    27   12   13 2
    28   12   15 1
    29   13   14 1
    30   14   36 1
    31   15   20 ar
    32   15   16 ar
    33   16   17 ar
    34   16   37 1
    35   17   18 ar
    36   17   38 1
    37   18   19 ar
    38   18   21 1
    39   19   20 ar
    40   19   39 1
    41   20   40 1
    42   21   22 2
    43   21   50 1
    44   23   41 1
    45   23   42 1
    46   23   43 1
    47   24   44 1
    48   24   45 1
    49   24   46 1
    50   25   47 1
    51   25   48 1
    52   25   49 1
@<TRIPOS>MOLECULE
ZINC04147417
   58    59     0     0     0
SMALL
USER_CHARGES

@<TRIPOS>ATOM
      1 C1         -0.8377    3.3362   -0.0680 C.3       1 <0>        -0.0991
      2 C2         -1.0468    1.8473    0.0342 C.2       1 <0>        -0.0959
      3 C3         -0.0122    0.9956   -0.2120 C.2       1 <0>        -0.1454
      4 C4          1.2089    1.4950   -0.7110 C.2       1 <0>         0.4653
      5 O1          1.3037    2.6670   -1.0269 O.co2     1 <0>        -0.6264
      6 C5         -2.3083    1.3375    0.3833 C.2       1 <0>        -0.0757
      7 C6         -3.3430    2.1892    0.6295 C.2       1 <0>        -0.1549
      8 C7         -4.6073    1.6783    0.9794 C.2       1 <0>        -0.0890
      9 C8         -5.6369    2.5258    1.2244 C.2       1 <0>        -0.0970
     10 C9         -5.4278    4.0147    1.1222 C.3       1 <0>        -0.1098
     11 C10        -6.9551    1.9931    1.5892 C.ar      1 <0>        -0.0687
     12 C11        -7.4037    2.0630    2.9104 C.ar      1 <0>        -0.0696
     13 C12        -8.6468    1.5622    3.2576 C.ar      1 <0>        -0.0991
     14 C13        -9.4557    0.9942    2.2930 C.ar      1 <0>        -0.0265
     15 C14        -9.0189    0.9167    0.9769 C.ar      1 <0>        -0.2097
     16 C15        -7.7813    1.4127    0.6122 C.ar      1 <0>         0.1354
     17 O2         -7.3657    1.3351   -0.6774 O.3       1 <0>        -0.3039
     18 C16        -8.2619    0.7315   -1.6126 C.3       1 <0>         0.0271
     19 C17       -10.8250    0.4478    2.6056 C.3       1 <0>        -0.0238
     20 C18       -10.9760    0.2022    4.1052 C.3       1 <0>        -0.1111
     21 C19       -10.5669    1.4796    4.8480 C.3       1 <0>        -0.1109
     22 C20        -9.0571    1.6582    4.7044 C.3       1 <0>        -0.0175
     23 C21        -8.3419    0.5680    5.5049 C.3       1 <0>        -0.1404
     24 C22        -8.6571    3.0295    5.2522 C.3       1 <0>        -0.1433
     25 C23       -11.8852    1.4523    2.1496 C.3       1 <0>        -0.1383
     26 C24       -11.0252   -0.8708    1.8558 C.3       1 <0>        -0.1414
     27 H1         -0.9554    3.6493   -1.1054 H         1 <0>         0.0636
     28 H2         -1.5725    3.8497    0.5521 H         1 <0>         0.0362
     29 H3          0.1660    3.5866    0.2754 H         1 <0>         0.0884
     30 H4         -0.1285   -0.0624   -0.0293 H         1 <0>         0.1045
     31 H5         -2.4581    0.2704    0.4565 H         1 <0>         0.1094
     32 H6         -3.1932    3.2563    0.5563 H         1 <0>         0.1234
     33 H7         -4.7572    0.6112    1.0526 H         1 <0>         0.1058
     34 H8         -5.6396    4.3423    0.1044 H         1 <0>         0.0665
     35 H9         -6.0980    4.5241    1.8147 H         1 <0>         0.0573
     36 H10        -4.3947    4.2546    1.3736 H         1 <0>         0.0702
     37 H11        -6.7760    2.5109    3.6665 H         1 <0>         0.1295
     38 H12        -9.6553    0.4674    0.2289 H         1 <0>         0.1268
     39 H13        -7.8082    0.7332   -2.6037 H         1 <0>         0.0997
     40 H14        -8.4669   -0.2950   -1.3087 H         1 <0>         0.0527
     41 H15        -9.1941    1.2958   -1.6387 H         1 <0>         0.0519
     42 H16       -12.0137   -0.0397    4.3350 H         1 <0>         0.0658
     43 H17       -10.3310   -0.6223    4.4090 H         1 <0>         0.0695
     44 H18       -11.0809    2.3372    4.4139 H         1 <0>         0.0680
     45 H19       -10.8279    1.3905    5.9026 H         1 <0>         0.0660
     46 H20        -7.2636    0.7041    5.4212 H         1 <0>         0.0572
     47 H21        -8.6362    0.6341    6.5523 H         1 <0>         0.0564
     48 H22        -8.6162   -0.4108    5.1114 H         1 <0>         0.0571
     49 H23        -9.1567    3.8099    4.6782 H         1 <0>         0.0559
     50 H24        -8.9524    3.1029    6.2989 H         1 <0>         0.0567
     51 H25        -7.5772    3.1528    5.1698 H         1 <0>         0.0599
     52 H26       -11.7933    1.6153    1.0758 H         1 <0>         0.0543
     53 H27       -12.8773    1.0605    2.3741 H         1 <0>         0.0576
     54 H28       -11.7403    2.3967    2.6742 H         1 <0>         0.0593
     55 H29       -10.2657   -1.5866    2.1704 H         1 <0>         0.0572
     56 H30       -12.0148   -1.2693    2.0794 H         1 <0>         0.0578
     57 H31       -10.9376   -0.6960    0.7835 H         1 <0>         0.0559
     58 O3          2.2729    0.6733   -0.8384 O.co2     1 <0>        -0.7708
@<TRIPOS>BOND
     1    1    2 1
     2    1   27 1
     3    1   28 1
     4    1   29 1
     5    2    3 2
     6    2    6 1
     7    3    4 1
     8    3   30 1
     9    4    5 2
    10    4   58 1
    11    6    7 2
    12    6   31 1
    13    7    8 1
    14    7   32 1
    15    8    9 2
    16    8   33 1
    17    9   10 1
    18    9   11 1
    19   10   34 1
    20   10   35 1
    21   10   36 1
    22   11   16 ar
    23   11   12 ar
    24   12   13 ar
    25   12   37 1
    26   13   22 1
    27   13   14 ar
    28   14   15 ar
    29   14   19 1
    30   15   16 ar
    31   15   38 1
    32   16   17 1
    33   17   18 1
    34   18   39 1
    35   18   40 1
    36   18   41 1
    37   19   20 1
    38   19   25 1
    39   19   26 1
    40   20   21 1
    41   20   42 1
    42   20   43 1
    43   21   22 1
    44   21   44 1
    45   21   45 1
    46   22   23 1
    47   22   24 1
    48   23   46 1
    49   23   47 1
    50   23   48 1
    51   24   49 1
    52   24   50 1
    53   24   51 1
    54   25   52 1
    55   25   53 1
    56   25   54 1
    57   26   55 1
    58   26   56 1
    59   26   57 1
@<TRIPOS>MOLECULE
ZINC04147418
   61    62     0     0     0
SMALL
USER_CHARGES

@<TRIPOS>ATOM
      1 C1         -7.6251    0.7339   -3.0038 C.3       1 <0>        -0.1530
      2 C2         -8.2619    0.7315   -1.6126 C.3       1 <0>         0.0555
      3 O1         -7.3657    1.3351   -0.6774 O.3       1 <0>        -0.3025
      4 C3         -7.7813    1.4127    0.6122 C.ar      1 <0>         0.1389
      5 C4         -9.0189    0.9167    0.9769 C.ar      1 <0>        -0.2105
      6 C5         -9.4557    0.9942    2.2930 C.ar      1 <0>        -0.0261
      7 C6         -8.6468    1.5622    3.2576 C.ar      1 <0>        -0.0998
      8 C7         -7.4037    2.0630    2.9104 C.ar      1 <0>        -0.0693
      9 C8         -6.9551    1.9931    1.5892 C.ar      1 <0>        -0.0695
     10 C9         -5.6369    2.5258    1.2244 C.2       1 <0>        -0.0959
     11 C10        -4.6073    1.6783    0.9794 C.2       1 <0>        -0.0893
     12 C11        -3.3430    2.1892    0.6295 C.2       1 <0>        -0.1543
     13 C12        -2.3083    1.3375    0.3833 C.2       1 <0>        -0.0762
     14 C13        -1.0468    1.8473    0.0342 C.2       1 <0>        -0.0956
     15 C14        -0.0122    0.9956   -0.2120 C.2       1 <0>        -0.1457
     16 C15         1.2089    1.4950   -0.7110 C.2       1 <0>         0.4653
     17 O2          1.3037    2.6670   -1.0269 O.co2     1 <0>        -0.6265
     18 C16        -0.8377    3.3362   -0.0680 C.3       1 <0>        -0.0990
     19 C17        -5.4278    4.0147    1.1222 C.3       1 <0>        -0.1097
     20 C18        -9.0571    1.6582    4.7044 C.3       1 <0>        -0.0174
     21 C19       -10.5669    1.4796    4.8480 C.3       1 <0>        -0.1109
     22 C20       -10.9760    0.2022    4.1052 C.3       1 <0>        -0.1111
     23 C21       -10.8250    0.4478    2.6056 C.3       1 <0>        -0.0237
     24 C22       -11.8852    1.4523    2.1496 C.3       1 <0>        -0.1383
     25 C23       -11.0252   -0.8708    1.8558 C.3       1 <0>        -0.1414
     26 C24        -8.3419    0.5680    5.5049 C.3       1 <0>        -0.1403
     27 C25        -8.6571    3.0295    5.2522 C.3       1 <0>        -0.1432
     28 H1         -7.4200    1.7604   -3.3077 H         1 <0>         0.0668
     29 H2         -6.6929    0.1696   -2.9776 H         1 <0>         0.0686
     30 H3         -8.3086    0.2735   -3.7171 H         1 <0>         0.0759
     31 H4         -8.4669   -0.2950   -1.3087 H         1 <0>         0.0584
     32 H5         -9.1941    1.2958   -1.6387 H         1 <0>         0.0577
     33 H6         -9.6553    0.4674    0.2289 H         1 <0>         0.1260
     34 H7         -6.7760    2.5109    3.6665 H         1 <0>         0.1292
     35 H8         -4.7572    0.6112    1.0526 H         1 <0>         0.1055
     36 H9         -3.1932    3.2563    0.5563 H         1 <0>         0.1232
     37 H10        -2.4581    0.2704    0.4565 H         1 <0>         0.1092
     38 H11        -0.1285   -0.0624   -0.0293 H         1 <0>         0.1044
     39 H12        -0.9554    3.6493   -1.1054 H         1 <0>         0.0635
     40 H13        -1.5725    3.8497    0.5521 H         1 <0>         0.0362
     41 H14         0.1660    3.5866    0.2754 H         1 <0>         0.0884
     42 H15        -5.6396    4.3423    0.1044 H         1 <0>         0.0663
     43 H16        -6.0980    4.5241    1.8147 H         1 <0>         0.0572
     44 H17        -4.3947    4.2546    1.3736 H         1 <0>         0.0700
     45 H18       -11.0809    2.3372    4.4139 H         1 <0>         0.0680
     46 H19       -10.8279    1.3905    5.9026 H         1 <0>         0.0659
     47 H20       -12.0137   -0.0397    4.3350 H         1 <0>         0.0657
     48 H21       -10.3310   -0.6223    4.4090 H         1 <0>         0.0694
     49 H22       -11.7933    1.6153    1.0758 H         1 <0>         0.0542
     50 H23       -12.8773    1.0605    2.3741 H         1 <0>         0.0576
     51 H24       -11.7403    2.3967    2.6742 H         1 <0>         0.0592
     52 H25       -10.2657   -1.5866    2.1704 H         1 <0>         0.0572
     53 H26       -12.0148   -1.2693    2.0794 H         1 <0>         0.0577
     54 H27       -10.9376   -0.6960    0.7835 H         1 <0>         0.0559
     55 H28        -7.2636    0.7041    5.4212 H         1 <0>         0.0571
     56 H29        -8.6362    0.6341    6.5523 H         1 <0>         0.0563
     57 H30        -8.6162   -0.4108    5.1114 H         1 <0>         0.0571
     58 H31        -9.1567    3.8099    4.6782 H         1 <0>         0.0559
     59 H32        -8.9524    3.1029    6.2989 H         1 <0>         0.0566
     60 H33        -7.5772    3.1528    5.1698 H         1 <0>         0.0598
     61 O3          2.2729    0.6733   -0.8384 O.co2     1 <0>        -0.7709
@<TRIPOS>BOND
     1    1    2 1
     2    1   28 1
     3    1   29 1
     4    1   30 1
     5    2    3 1
     6    2   31 1
     7    2   32 1
     8    3    4 1
     9    4    9 ar
    10    4    5 ar
    11    5    6 ar
    12    5   33 1
    13    6   23 1
    14    6    7 ar
    15    7    8 ar
    16    7   20 1
    17    8    9 ar
    18    8   34 1
    19    9   10 1
    20   10   11 2
    21   10   19 1
    22   11   12 1
    23   11   35 1
    24   12   13 2
    25   12   36 1
    26   13   14 1
    27   13   37 1
    28   14   15 2
    29   14   18 1
    30   15   16 1
    31   15   38 1
    32   16   17 2
    33   16   61 1
    34   18   39 1
    35   18   40 1
    36   18   41 1
    37   19   42 1
    38   19   43 1
    39   19   44 1
    40   20   21 1
    41   20   26 1
    42   20   27 1
    43   21   22 1
    44   21   45 1
    45   21   46 1
    46   22   23 1
    47   22   47 1
    48   22   48 1
    49   23   24 1
    50   23   25 1
    51   24   49 1
    52   24   50 1
    53   24   51 1
    54   25   52 1
    55   25   53 1
    56   25   54 1
    57   26   55 1
    58   26   56 1
    59   26   57 1
    60   27   58 1
    61   27   59 1
    62   27   60 1
@<TRIPOS>MOLECULE
ZINC04147419
   64    65     0     0     0
SMALL
USER_CHARGES

@<TRIPOS>ATOM
      1 C1         -8.5846    0.0876   -4.0050 C.3       1 <0>        -0.1484
      2 C2         -7.6251    0.7339   -3.0038 C.3       1 <0>        -0.1251
      3 C3         -8.2619    0.7315   -1.6126 C.3       1 <0>         0.0600
      4 O1         -7.3657    1.3351   -0.6774 O.3       1 <0>        -0.3023
      5 C4         -7.7813    1.4127    0.6122 C.ar      1 <0>         0.1394
      6 C5         -9.0189    0.9167    0.9769 C.ar      1 <0>        -0.2105
      7 C6         -9.4557    0.9942    2.2930 C.ar      1 <0>        -0.0259
      8 C7         -8.6468    1.5622    3.2576 C.ar      1 <0>        -0.0997
      9 C8         -7.4037    2.0630    2.9104 C.ar      1 <0>        -0.0693
     10 C9         -6.9551    1.9931    1.5892 C.ar      1 <0>        -0.0694
     11 C10        -5.6369    2.5258    1.2244 C.2       1 <0>        -0.0958
     12 C11        -4.6073    1.6783    0.9794 C.2       1 <0>        -0.0892
     13 C12        -3.3430    2.1892    0.6295 C.2       1 <0>        -0.1542
     14 C13        -2.3083    1.3375    0.3833 C.2       1 <0>        -0.0762
     15 C14        -1.0468    1.8473    0.0342 C.2       1 <0>        -0.0956
     16 C15        -0.0122    0.9956   -0.2120 C.2       1 <0>        -0.1457
     17 C16         1.2089    1.4950   -0.7110 C.2       1 <0>         0.4653
     18 O2          1.3037    2.6670   -1.0269 O.co2     1 <0>        -0.6265
     19 C17        -0.8377    3.3362   -0.0680 C.3       1 <0>        -0.0990
     20 C18        -5.4278    4.0147    1.1222 C.3       1 <0>        -0.1097
     21 C19        -9.0571    1.6582    4.7044 C.3       1 <0>        -0.0174
     22 C20       -10.5669    1.4796    4.8480 C.3       1 <0>        -0.1109
     23 C21       -10.9760    0.2022    4.1052 C.3       1 <0>        -0.1111
     24 C22       -10.8250    0.4478    2.6056 C.3       1 <0>        -0.0237
     25 C23       -11.8852    1.4523    2.1496 C.3       1 <0>        -0.1383
     26 C24       -11.0252   -0.8708    1.8558 C.3       1 <0>        -0.1414
     27 C25        -8.3419    0.5680    5.5049 C.3       1 <0>        -0.1403
     28 C26        -8.6571    3.0295    5.2522 C.3       1 <0>        -0.1432
     29 H1         -8.1309    0.0894   -4.9961 H         1 <0>         0.0648
     30 H2         -8.7896   -0.9389   -3.7011 H         1 <0>         0.0562
     31 H3         -9.5168    0.6519   -4.0312 H         1 <0>         0.0554
     32 H4         -7.4200    1.7604   -3.3077 H         1 <0>         0.0741
     33 H5         -6.6929    0.1696   -2.9776 H         1 <0>         0.0759
     34 H6         -8.4669   -0.2950   -1.3087 H         1 <0>         0.0585
     35 H7         -9.1941    1.2958   -1.6387 H         1 <0>         0.0578
     36 H8         -9.6553    0.4674    0.2289 H         1 <0>         0.1259
     37 H9         -6.7760    2.5109    3.6665 H         1 <0>         0.1292
     38 H10        -4.7572    0.6112    1.0526 H         1 <0>         0.1055
     39 H11        -3.1932    3.2563    0.5563 H         1 <0>         0.1232
     40 H12        -2.4581    0.2704    0.4565 H         1 <0>         0.1091
     41 H13        -0.1285   -0.0624   -0.0293 H         1 <0>         0.1043
     42 H14        -0.9554    3.6493   -1.1054 H         1 <0>         0.0635
     43 H15        -1.5725    3.8497    0.5521 H         1 <0>         0.0361
     44 H16         0.1660    3.5866    0.2754 H         1 <0>         0.0884
     45 H17        -5.6396    4.3423    0.1044 H         1 <0>         0.0663
     46 H18        -6.0980    4.5241    1.8147 H         1 <0>         0.0572
     47 H19        -4.3947    4.2546    1.3736 H         1 <0>         0.0700
     48 H20       -11.0809    2.3372    4.4139 H         1 <0>         0.0680
     49 H21       -10.8279    1.3905    5.9026 H         1 <0>         0.0659
     50 H22       -12.0137   -0.0397    4.3350 H         1 <0>         0.0657
     51 H23       -10.3310   -0.6223    4.4090 H         1 <0>         0.0694
     52 H24       -11.7933    1.6153    1.0758 H         1 <0>         0.0542
     53 H25       -12.8773    1.0605    2.3741 H         1 <0>         0.0576
     54 H26       -11.7403    2.3967    2.6742 H         1 <0>         0.0592
     55 H27       -10.2657   -1.5866    2.1704 H         1 <0>         0.0572
     56 H28       -12.0148   -1.2693    2.0794 H         1 <0>         0.0577
     57 H29       -10.9376   -0.6960    0.7835 H         1 <0>         0.0558
     58 H30        -7.2636    0.7041    5.4212 H         1 <0>         0.0571
     59 H31        -8.6362    0.6341    6.5523 H         1 <0>         0.0563
     60 H32        -8.6162   -0.4108    5.1114 H         1 <0>         0.0570
     61 H33        -9.1567    3.8099    4.6782 H         1 <0>         0.0559
     62 H34        -8.9524    3.1029    6.2989 H         1 <0>         0.0566
     63 H35        -7.5772    3.1528    5.1698 H         1 <0>         0.0598
     64 O3          2.2729    0.6733   -0.8384 O.co2     1 <0>        -0.7709
@<TRIPOS>BOND
     1    1    2 1
     2    1   29 1
     3    1   30 1
     4    1   31 1
     5    2    3 1
     6    2   32 1
     7    2   33 1
     8    3    4 1
     9    3   34 1
    10    3   35 1
    11    4    5 1
    12    5   10 ar
    13    5    6 ar
    14    6    7 ar
    15    6   36 1
    16    7   24 1
    17    7    8 ar
    18    8    9 ar
    19    8   21 1
    20    9   10 ar
    21    9   37 1
    22   10   11 1
    23   11   12 2
    24   11   20 1
    25   12   13 1
    26   12   38 1
    27   13   14 2
    28   13   39 1
    29   14   15 1
    30   14   40 1
    31   15   16 2
    32   15   19 1
    33   16   17 1
    34   16   41 1
    35   17   18 2
    36   17   64 1
    37   19   42 1
    38   19   43 1
    39   19   44 1
    40   20   45 1
    41   20   46 1
    42   20   47 1
    43   21   22 1
    44   21   27 1
    45   21   28 1
    46   22   23 1
    47   22   48 1
    48   22   49 1
    49   23   24 1
    50   23   50 1
    51   23   51 1
    52   24   25 1
    53   24   26 1
    54   25   52 1
    55   25   53 1
    56   25   54 1
    57   26   55 1
    58   26   56 1
    59   26   57 1
    60   27   58 1
    61   27   59 1
    62   27   60 1
    63   28   61 1
    64   28   62 1
    65   28   63 1
@<TRIPOS>MOLECULE
ZINC04632537
   52    54     0     0     0
SMALL
USER_CHARGES

@<TRIPOS>ATOM
      1 C1          0.9417   -2.6231    0.1725 C.3       1 <0>        -0.1186
      2 C2          1.1839   -1.1359    0.1987 C.ar      1 <0>        -0.0563
      3 C3          2.4424   -0.6440    0.4637 C.ar      1 <0>        -0.1210
      4 C4          2.6785    0.7257    0.4921 C.ar      1 <0>        -0.0520
      5 C5          1.6464    1.6060    0.2459 C.ar      1 <0>        -0.0712
      6 C6          0.3752    1.1209   -0.0195 C.ar      1 <0>        -0.0799
      7 C7          0.1345   -0.2501   -0.0449 C.ar      1 <0>        -0.0455
      8 C8         -1.2256   -0.7639   -0.3279 C.2       1 <0>         0.2878
      9 N1         -2.1948   -0.5373    0.5113 N.2       1 <0>        -0.6780
     10 C9         -1.4832   -1.5360   -1.5664 C.ar      1 <0>        -0.1286
     11 C10        -0.4966   -1.6276   -2.5489 C.ar      1 <0>        -0.0954
     12 C11        -0.7332   -2.3498   -3.6977 C.ar      1 <0>        -0.0822
     13 C12        -1.9652   -2.9809   -3.8841 C.ar      1 <0>        -0.0905
     14 C13        -2.9543   -2.8841   -2.9027 C.ar      1 <0>        -0.0882
     15 C14        -2.7142   -2.1663   -1.7519 C.ar      1 <0>        -0.1163
     16 C15        -2.2219   -3.7513   -5.1189 C.2       1 <0>         0.4860
     17 O1         -3.2932   -4.3004   -5.2806 O.co2     1 <0>        -0.6278
     18 C16         1.8385    3.1003    0.2451 C.3       1 <0>        -0.0209
     19 C17         3.1314    3.4759    0.9661 C.3       1 <0>        -0.1104
     20 C18         4.2737    2.6402    0.3767 C.3       1 <0>        -0.1117
     21 C19         4.0784    1.1871    0.8049 C.3       1 <0>        -0.0230
     22 C20         4.3248    1.0662    2.3101 C.3       1 <0>        -0.1385
     23 C21         5.0794    0.3032    0.0582 C.3       1 <0>        -0.1429
     24 C22         1.9030    3.5998   -1.1996 C.3       1 <0>        -0.1406
     25 C23         0.6550    3.7615    0.9543 C.3       1 <0>        -0.1426
     26 H1          1.0518   -2.9912   -0.8475 H         1 <0>         0.0793
     27 H2          1.6653   -3.1205    0.8184 H         1 <0>         0.0652
     28 H3         -0.0671   -2.8332    0.5277 H         1 <0>         0.0646
     29 H4          3.2551   -1.3299    0.6519 H         1 <0>         0.1246
     30 H5         -0.4328    1.8111   -0.2124 H         1 <0>         0.1232
     31 H6         -3.0855   -0.8738    0.3260 H         1 <0>         0.3381
     32 H7          0.4542   -1.1356   -2.4068 H         1 <0>         0.1224
     33 H8          0.0320   -2.4243   -4.4562 H         1 <0>         0.1353
     34 H9         -3.9070   -3.3721   -3.0460 H         1 <0>         0.1314
     35 H10        -3.4788   -2.0916   -0.9928 H         1 <0>         0.1145
     36 H11         3.3387    4.5359    0.8198 H         1 <0>         0.0657
     37 H12         3.0327    3.2646    2.0308 H         1 <0>         0.0681
     38 H13         4.2552    2.7085   -0.7110 H         1 <0>         0.0700
     39 H14         5.2289    3.0083    0.7513 H         1 <0>         0.0655
     40 H15         4.2060    0.0265    2.6153 H         1 <0>         0.0560
     41 H16         5.3368    1.3991    2.5405 H         1 <0>         0.0566
     42 H17         3.6071    1.6867    2.8468 H         1 <0>         0.0579
     43 H18         4.9011    0.3785   -1.0145 H         1 <0>         0.0583
     44 H19         6.0936    0.6339    0.2820 H         1 <0>         0.0565
     45 H20         4.9567   -0.7324    0.3751 H         1 <0>         0.0594
     46 H21         0.9738    3.3507   -1.7120 H         1 <0>         0.0572
     47 H22         2.0420    4.6809   -1.2044 H         1 <0>         0.0567
     48 H23         2.7392    3.1238   -1.7117 H         1 <0>         0.0592
     49 H24         0.5993    3.4010    1.9814 H         1 <0>         0.0565
     50 H25         0.7904    4.8431    0.9557 H         1 <0>         0.0564
     51 H26        -0.2680    3.5116    0.4310 H         1 <0>         0.0593
     52 O2         -1.2677   -3.8446   -6.0653 O.co2     1 <0>        -0.7495
@<TRIPOS>BOND
     1    1    2 1
     2    1   26 1
     3    1   27 1
     4    1   28 1
     5    2    7 ar
     6    2    3 ar
     7    3    4 ar
     8    3   29 1
     9    4   21 1
    10    4    5 ar
    11    5    6 ar
    12    5   18 1
    13    6    7 ar
    14    6   30 1
    15    7    8 1
    16    8    9 2
    17    8   10 1
    18    9   31 1
    19   10   15 ar
    20   10   11 ar
    21   11   12 ar
    22   11   32 1
    23   12   13 ar
    24   12   33 1
    25   13   14 ar
    26   13   16 1
    27   14   15 ar
    28   14   34 1
    29   15   35 1
    30   16   17 2
    31   16   52 1
    32   18   19 1
    33   18   24 1
    34   18   25 1
    35   19   20 1
    36   19   36 1
    37   19   37 1
    38   20   21 1
    39   20   38 1
    40   20   39 1
    41   21   22 1
    42   21   23 1
    43   22   40 1
    44   22   41 1
    45   22   42 1
    46   23   43 1
    47   23   44 1
    48   23   45 1
    49   24   46 1
    50   24   47 1
    51   24   48 1
    52   25   49 1
    53   25   50 1
    54   25   51 1
@<TRIPOS>MOLECULE
ZINC04632538
   65    67     0     0     0
SMALL
USER_CHARGES

@<TRIPOS>ATOM
      1 C1          2.6196    1.3952    0.0357 C.3       1 <0>        -0.1182
      2 C2          2.5585   -0.1102    0.0657 C.ar      1 <0>        -0.0537
      3 C3          3.7197   -0.8498    0.0986 C.ar      1 <0>        -0.1227
      4 C4          3.6767   -2.2390    0.1252 C.ar      1 <0>        -0.0508
      5 C5          2.4608   -2.8886    0.1245 C.ar      1 <0>        -0.0703
      6 C6          1.2861   -2.1529    0.0956 C.ar      1 <0>        -0.0763
      7 C7          1.3258   -0.7621    0.0598 C.ar      1 <0>        -0.0808
      8 C8          0.0679    0.0200    0.0218 C.2       1 <0>         0.2300
      9 N1         -0.7141   -0.0551   -1.0164 N.2       1 <0>        -0.3286
     10 O1         -0.3099   -0.7927   -2.1555 O.3       1 <0>        -0.2203
     11 C9         -1.2119   -0.6976   -3.2597 C.3       1 <0>         0.1203
     12 C10        -1.3382    0.7650   -3.6906 C.3       1 <0>        -0.1673
     13 C11        -0.6777   -1.5290   -4.4278 C.3       1 <0>        -0.1362
     14 C12        -2.5856   -1.2270   -2.8432 C.3       1 <0>        -0.1666
     15 C13        -0.2999    0.8871    1.1650 C.ar      1 <0>        -0.0634
     16 C14         0.4549    0.8516    2.3385 C.ar      1 <0>        -0.0982
     17 C15         0.1171    1.6615    3.3995 C.ar      1 <0>        -0.0837
     18 C16        -0.9882    2.5110    3.3052 C.ar      1 <0>        -0.0891
     19 C17        -1.7467    2.5417    2.1321 C.ar      1 <0>        -0.0948
     20 C18        -1.4044    1.7351    1.0702 C.ar      1 <0>        -0.0934
     21 C19        -1.3544    3.3763    4.4446 C.2       1 <0>         0.4861
     22 O2         -2.3152    4.1150    4.3621 O.co2     1 <0>        -0.6282
     23 C20         2.3441   -4.3902    0.1629 C.3       1 <0>        -0.0203
     24 C21         3.6651   -5.0420   -0.2404 C.3       1 <0>        -0.1099
     25 C22         4.7867   -4.4216    0.6011 C.3       1 <0>        -0.1115
     26 C23         4.9894   -2.9783    0.1451 C.3       1 <0>        -0.0227
     27 C24         5.5924   -2.9736   -1.2610 C.3       1 <0>        -0.1380
     28 C25         5.9495   -2.2756    1.1071 C.3       1 <0>        -0.1426
     29 C26         1.9758   -4.8316    1.5808 C.3       1 <0>        -0.1404
     30 C27         1.2457   -4.8357   -0.8046 C.3       1 <0>        -0.1405
     31 H1          2.7023    1.7758    1.0538 H         1 <0>         0.0795
     32 H2          3.4877    1.7122   -0.5423 H         1 <0>         0.0642
     33 H3          1.7131    1.7866   -0.4260 H         1 <0>         0.0658
     34 H4          4.6744   -0.3449    0.1034 H         1 <0>         0.1231
     35 H5          0.3339   -2.6624    0.0960 H         1 <0>         0.1189
     36 H6         -0.3595    1.1422   -3.9873 H         1 <0>         0.0561
     37 H7         -2.0262    0.8376   -4.5329 H         1 <0>         0.0604
     38 H8         -1.7188    1.3574   -2.8585 H         1 <0>         0.0684
     39 H9         -0.5877   -2.5710   -4.1208 H         1 <0>         0.0616
     40 H10        -1.3657   -1.4564   -5.2700 H         1 <0>         0.0739
     41 H11         0.3010   -1.1519   -4.7245 H         1 <0>         0.0615
     42 H12        -2.9662   -0.6347   -2.0111 H         1 <0>         0.0688
     43 H13        -3.2737   -1.1544   -3.6855 H         1 <0>         0.0601
     44 H14        -2.4957   -2.2690   -2.5363 H         1 <0>         0.0557
     45 H15         1.3066    0.1917    2.4128 H         1 <0>         0.1208
     46 H16         0.7041    1.6374    4.3057 H         1 <0>         0.1353
     47 H17        -2.6010    3.1983    2.0583 H         1 <0>         0.1310
     48 H18        -1.9906    1.7587    0.1634 H         1 <0>         0.1249
     49 H19         3.6170   -6.1149   -0.0543 H         1 <0>         0.0654
     50 H20         3.8560   -4.8610   -1.2982 H         1 <0>         0.0676
     51 H21         4.5072   -4.4380    1.6545 H         1 <0>         0.0698
     52 H22         5.7083   -4.9855    0.4572 H         1 <0>         0.0655
     53 H23         5.7572   -1.9451   -1.5822 H         1 <0>         0.0555
     54 H24         6.5426   -3.5076   -1.2507 H         1 <0>         0.0566
     55 H25         4.9071   -3.4646   -1.9519 H         1 <0>         0.0574
     56 H26         5.5194   -2.2677    2.1086 H         1 <0>         0.0583
     57 H27         6.9007   -2.8076    1.1243 H         1 <0>         0.0565
     58 H28         6.1125   -1.2507    0.7736 H         1 <0>         0.0592
     59 H29         1.0235   -4.3838    1.8649 H         1 <0>         0.0567
     60 H30         1.8905   -5.9178    1.6126 H         1 <0>         0.0566
     61 H31         2.7512   -4.5076    2.2750 H         1 <0>         0.0592
     62 H32         1.4992   -4.5147   -1.8149 H         1 <0>         0.0557
     63 H33         1.1582   -5.9219   -0.7796 H         1 <0>         0.0558
     64 H34         0.2971   -4.3879   -0.5084 H         1 <0>         0.0577
     65 O3         -0.6228    3.3463    5.5755 O.co2     1 <0>        -0.7510
@<TRIPOS>BOND
     1    1    2 1
     2    1   31 1
     3    1   32 1
     4    1   33 1
     5    2    7 ar
     6    2    3 ar
     7    3    4 ar
     8    3   34 1
     9    4   26 1
    10    4    5 ar
    11    5    6 ar
    12    5   23 1
    13    6    7 ar
    14    6   35 1
    15    7    8 1
    16    8    9 2
    17    8   15 1
    18    9   10 1
    19   10   11 1
    20   11   12 1
    21   11   13 1
    22   11   14 1
    23   12   36 1
    24   12   37 1
    25   12   38 1
    26   13   39 1
    27   13   40 1
    28   13   41 1
    29   14   42 1
    30   14   43 1
    31   14   44 1
    32   15   20 ar
    33   15   16 ar
    34   16   17 ar
    35   16   45 1
    36   17   18 ar
    37   17   46 1
    38   18   19 ar
    39   18   21 1
    40   19   20 ar
    41   19   47 1
    42   20   48 1
    43   21   22 2
    44   21   65 1
    45   23   24 1
    46   23   29 1
    47   23   30 1
    48   24   25 1
    49   24   49 1
    50   24   50 1
    51   25   26 1
    52   25   51 1
    53   25   52 1
    54   26   27 1
    55   26   28 1
    56   27   53 1
    57   27   54 1
    58   27   55 1
    59   28   56 1
    60   28   57 1
    61   28   58 1
    62   29   59 1
    63   29   60 1
    64   29   61 1
    65   30   62 1
    66   30   63 1
    67   30   64 1
@<TRIPOS>MOLECULE
ZINC04632539
   53    55     0     0     0
SMALL
USER_CHARGES

@<TRIPOS>ATOM
      1 C1          3.6653    8.5214   -0.9374 C.3       1 <0>        -0.1388
      2 C2          3.9062    7.9141    0.4460 C.3       1 <0>        -0.0240
      3 C3          5.2501    8.4018    0.9829 C.3       1 <0>        -0.1116
      4 C4          6.3657    7.7665    0.1448 C.3       1 <0>        -0.1105
      5 C5          6.4159    6.2735    0.4624 C.3       1 <0>        -0.0208
      6 C6          5.0467    5.6582    0.3341 C.ar      1 <0>        -0.0707
      7 C7          3.8920    6.4113    0.3381 C.ar      1 <0>        -0.0500
      8 C8          2.6558    5.7843    0.2320 C.ar      1 <0>        -0.1252
      9 C9          2.5690    4.4149    0.1162 C.ar      1 <0>        -0.0878
     10 C10         3.7339    3.6485    0.1055 C.ar      1 <0>        -0.0907
     11 C11         4.9696    4.2787    0.2205 C.ar      1 <0>        -0.0718
     12 C12         3.6566    2.1743   -0.0212 C.2       1 <0>         0.2325
     13 N1          4.5353    1.5357   -0.7389 N.2       1 <0>        -0.3393
     14 O1          5.4802    2.2570   -1.5082 O.3       1 <0>        -0.2374
     15 C13         6.3825    1.4296   -2.2455 C.3       1 <0>         0.0435
     16 C14         2.5796    1.4271    0.6688 C.ar      1 <0>        -0.0678
     17 C15         1.8735    2.0264    1.7129 C.ar      1 <0>        -0.1016
     18 C16         0.8723    1.3326    2.3548 C.ar      1 <0>        -0.0923
     19 C17         0.5633    0.0282    1.9605 C.ar      1 <0>        -0.0888
     20 C18         1.2708   -0.5710    0.9151 C.ar      1 <0>        -0.0854
     21 C19         2.2716    0.1242    0.2744 C.ar      1 <0>        -0.0919
     22 C20        -0.5101   -0.7169    2.6487 C.2       1 <0>         0.4861
     23 O2         -1.1246   -0.1958    3.5578 O.co2     1 <0>        -0.6278
     24 C21         6.9245    6.0787    1.8922 C.3       1 <0>        -0.1400
     25 C22         7.3728    5.5825   -0.5111 C.3       1 <0>        -0.1409
     26 C23         2.7918    8.3623    1.3937 C.3       1 <0>        -0.1430
     27 H1          2.6977    8.1915   -1.3156 H         1 <0>         0.0567
     28 H2          3.6748    9.6089   -0.8635 H         1 <0>         0.0573
     29 H3          4.4516    8.1967   -1.6188 H         1 <0>         0.0576
     30 H4          5.3590    8.1033    2.0256 H         1 <0>         0.0694
     31 H5          5.3050    9.4876    0.9044 H         1 <0>         0.0661
     32 H6          7.3211    8.2275    0.3955 H         1 <0>         0.0660
     33 H7          6.1554    7.9095   -0.9151 H         1 <0>         0.0683
     34 H8          1.7535    6.3777    0.2410 H         1 <0>         0.1254
     35 H9          1.6039    3.9370    0.0344 H         1 <0>         0.1307
     36 H10         5.8746    3.6894    0.2171 H         1 <0>         0.1266
     37 H11         5.8185    0.8016   -2.9351 H         1 <0>         0.0477
     38 H12         7.0737    2.0572   -2.8081 H         1 <0>         0.0908
     39 H13         6.9434    0.7991   -1.5557 H         1 <0>         0.0468
     40 H14         2.1124    3.0346    2.0175 H         1 <0>         0.1245
     41 H15         0.3230    1.7980    3.1597 H         1 <0>         0.1329
     42 H16         1.0328   -1.5793    0.6100 H         1 <0>         0.1360
     43 H17         2.8183   -0.3387   -0.5339 H         1 <0>         0.1252
     44 H18         6.9803    5.0134    2.1160 H         1 <0>         0.0557
     45 H19         7.9153    6.5227    1.9890 H         1 <0>         0.0572
     46 H20         6.2403    6.5612    2.5902 H         1 <0>         0.0589
     47 H21         7.0089    5.7104   -1.5306 H         1 <0>         0.0561
     48 H22         8.3648    6.0250   -0.4211 H         1 <0>         0.0557
     49 H23         7.4263    4.5197   -0.2751 H         1 <0>         0.0596
     50 H24         2.9539    7.9238    2.3784 H         1 <0>         0.0579
     51 H25         2.7988    9.4493    1.4744 H         1 <0>         0.0571
     52 H26         1.8287    8.0332    1.0035 H         1 <0>         0.0605
     53 O3         -0.8077   -1.9746    2.2683 O.co2     1 <0>        -0.7504
@<TRIPOS>BOND
     1    1    2 1
     2    1   27 1
     3    1   28 1
     4    1   29 1
     5    2    7 1
     6    2    3 1
     7    2   26 1
     8    3    4 1
     9    3   30 1
    10    3   31 1
    11    4    5 1
    12    4   32 1
    13    4   33 1
    14    5    6 1
    15    5   24 1
    16    5   25 1
    17    6   11 ar
    18    6    7 ar
    19    7    8 ar
    20    8    9 ar
    21    8   34 1
    22    9   10 ar
    23    9   35 1
    24   10   11 ar
    25   10   12 1
    26   11   36 1
    27   12   13 2
    28   12   16 1
    29   13   14 1
    30   14   15 1
    31   15   37 1
    32   15   38 1
    33   15   39 1
    34   16   21 ar
    35   16   17 ar
    36   17   18 ar
    37   17   40 1
    38   18   19 ar
    39   18   41 1
    40   19   20 ar
    41   19   22 1
    42   20   21 ar
    43   20   42 1
    44   21   43 1
    45   22   23 2
    46   22   53 1
    47   24   44 1
    48   24   45 1
    49   24   46 1
    50   25   47 1
    51   25   48 1
    52   25   49 1
    53   26   50 1
    54   26   51 1
    55   26   52 1
