@<TRIPOS>MOLECULE
ZINC01545762
   49    51     0     0     0
SMALL
USER_CHARGES

@<TRIPOS>ATOM
      1 C1         -7.0267    9.7760   -3.6718 C.3       1 <0>         0.0874
      2 N1         -6.9165    8.3181   -3.7637 N.pl3     1 <0>        -0.9521
      3 C2         -6.8469    7.5483   -2.6005 C.ar      1 <0>         0.1789
      4 C3         -7.8868    7.5840   -1.6792 C.ar      1 <0>        -0.1474
      5 C4         -7.8175    6.8230   -0.5287 C.ar      1 <0>        -0.0667
      6 C5         -6.7146    6.0247   -0.2902 C.ar      1 <0>        -0.2041
      7 C6         -5.6730    5.9854   -1.2064 C.ar      1 <0>         0.1354
      8 C7         -5.7362    6.7516   -2.3598 C.ar      1 <0>        -0.1350
      9 O1         -4.5892    5.2003   -0.9702 O.3       1 <0>        -0.3152
     10 C8         -4.5888    4.4423    0.2412 C.3       1 <0>         0.0403
     11 C9         -3.2977    3.6263    0.3318 C.3       1 <0>         0.1011
     12 N2         -2.1531    4.5341    0.4423 N.pl3     1 <0>        -0.6758
     13 C10        -0.8637    4.0195    0.5384 C.ar      1 <0>         0.3240
     14 C11        -0.6398    2.6429    0.5259 C.ar      1 <0>        -0.2120
     15 C12         0.6527    2.1733    0.6283 C.ar      1 <0>         0.1767
     16 C13         1.5001    4.3173    0.7374 C.ar      1 <0>         0.1722
     17 C14         0.2389    4.8671    0.6443 C.ar      1 <0>        -0.2049
     18 S1         -6.8744    7.5828   -5.2470 S.o2      1 <0>         2.6837
     19 O2         -6.2825    8.5121   -6.1443 O.2       1 <0>        -0.9428
     20 O3         -6.3447    6.2806   -5.0398 O.2       1 <0>        -0.9435
     21 C15        -8.5433    7.3702   -5.7706 C.ar      1 <0>        -0.6786
     22 C16        -9.2261    6.2118   -5.4499 C.ar      1 <0>        -0.0181
     23 C17       -10.5371    6.0472   -5.8562 C.ar      1 <0>        -0.1387
     24 C18       -11.1619    7.0364   -6.5924 C.ar      1 <0>        -0.0582
     25 C19       -10.4773    8.1924   -6.9180 C.ar      1 <0>        -0.1374
     26 C20        -9.1681    8.3594   -6.5068 C.ar      1 <0>        -0.0225
     27 H1         -6.0294   10.2157   -3.6586 H         1 <0>         0.0717
     28 H2         -7.5789   10.1537   -4.5324 H         1 <0>         0.0794
     29 H3         -7.5538   10.0435   -2.7560 H         1 <0>         0.0821
     30 H4         -8.7493    8.2074   -1.8628 H         1 <0>         0.1338
     31 H5         -8.6265    6.8520    0.1862 H         1 <0>         0.1356
     32 H6         -6.6633    5.4311    0.6105 H         1 <0>         0.1315
     33 H7         -4.9243    6.7259   -3.0715 H         1 <0>         0.1380
     34 H8         -5.4456    3.7685    0.2484 H         1 <0>         0.0957
     35 H9         -4.6515    5.1190    1.0933 H         1 <0>         0.0788
     36 H10        -3.1910    3.0144   -0.5639 H         1 <0>         0.0999
     37 H11        -3.3362    2.9816    1.2098 H         1 <0>         0.1085
     38 H12        -2.2941    5.4938    0.4485 H         1 <0>         0.4256
     39 H13        -1.4675    1.9542    0.4413 H         1 <0>         0.1786
     40 H14         0.8351    1.1089    0.6232 H         1 <0>         0.1927
     41 H15         2.3597    4.9659    0.8194 H         1 <0>         0.1928
     42 H16         0.1069    5.9389    0.6530 H         1 <0>         0.1793
     43 H17        -8.7365    5.4370   -4.8785 H         1 <0>         0.1385
     44 H18       -11.0721    5.1442   -5.6015 H         1 <0>         0.1354
     45 H19       -12.1849    6.9063   -6.9130 H         1 <0>         0.1349
     46 H20       -10.9654    8.9652   -7.4932 H         1 <0>         0.1369
     47 H21        -8.6332    9.2625   -6.7612 H         1 <0>         0.1407
     48 N3          1.7451    2.9784    0.7327 N.ar      1 <0>        -0.5309
     49 H22         2.6964    2.5988    0.8036 H         1 <0>         0.4736
@<TRIPOS>BOND
     1    1    2 1
     2    1   27 1
     3    1   28 1
     4    1   29 1
     5    2    3 1
     6    2   18 1
     7    3    8 ar
     8    3    4 ar
     9    4    5 ar
    10    4   30 1
    11    5    6 ar
    12    5   31 1
    13    6    7 ar
    14    6   32 1
    15    7    8 ar
    16    7    9 1
    17    8   33 1
    18    9   10 1
    19   10   11 1
    20   10   34 1
    21   10   35 1
    22   11   12 1
    23   11   36 1
    24   11   37 1
    25   12   13 1
    26   12   38 1
    27   13   17 ar
    28   13   14 ar
    29   14   15 ar
    30   14   39 1
    31   15   40 1
    32   15   48 ar
    33   16   17 ar
    34   16   41 1
    35   16   48 ar
    36   17   42 1
    37   18   19 2
    38   18   20 2
    39   18   21 1
    40   21   26 ar
    41   21   22 ar
    42   22   23 ar
    43   22   43 1
    44   23   24 ar
    45   23   44 1
    46   24   25 ar
    47   24   45 1
    48   25   26 ar
    49   25   46 1
    50   26   47 1
    51   48   49 1
@<TRIPOS>MOLECULE
ZINC02043468
   62    65     0     0     0
SMALL
USER_CHARGES

@<TRIPOS>ATOM
      1 H1          3.6533   12.6563   -0.1343 H         1 <0>         0.4487
      2 C1          1.6433   12.9766   -0.0902 C.cat     1 <0>         0.5961
      3 C2          0.3562   12.4671   -0.6159 C.ar      1 <0>        -0.1468
      4 C3         -0.8410   13.0867   -0.2578 C.ar      1 <0>        -0.0511
      5 C4         -2.0370   12.6077   -0.7512 C.ar      1 <0>        -0.1017
      6 C5         -2.0500   11.5184   -1.6044 C.ar      1 <0>        -0.0504
      7 C6         -0.8666   10.8962   -1.9586 C.ar      1 <0>        -0.0813
      8 C7          0.3362   11.3661   -1.4715 C.ar      1 <0>        -0.0608
      9 C8         -0.8900    9.7065   -2.8834 C.3       1 <0>        -0.0872
     10 C9         -1.0140    8.4229   -2.0600 C.3       1 <0>         0.1361
     11 H2         -1.9173    8.4673   -1.4518 H         1 <0>         0.1224
     12 C10        -1.0901    7.2371   -2.9868 C.2       1 <0>         0.4999
     13 O1         -0.1180    6.5299   -3.1480 O.2       1 <0>        -0.4753
     14 N1         -2.2383    6.9622   -3.6367 N.am      1 <0>        -0.6305
     15 C11        -3.3925    7.8694   -3.5465 C.3       1 <0>         0.0714
     16 C12        -4.6274    7.0569   -3.1601 C.3       1 <0>        -0.0231
     17 C13        -3.6496    5.0123   -4.0232 C.3       1 <0>        -0.0215
     18 C14        -2.3727    5.7441   -4.4498 C.3       1 <0>         0.0887
     19 N2          0.1556    8.2871   -1.1883 N.pl3     1 <0>        -1.0963
     20 S1         -0.0079    7.6204    0.3187 S.o2      1 <0>         2.6834
     21 O2         -1.1088    8.2744    0.9349 O.2       1 <0>        -0.9461
     22 O3          1.2894    7.6031    0.8982 O.2       1 <0>        -0.9384
     23 C15        -0.4823    5.9382    0.0955 C.ar      1 <0>        -0.6627
     24 C16         0.5009    4.9559   -0.0094 C.ar      1 <0>        -0.0371
     25 C17         0.1686    3.6475   -0.1823 C.ar      1 <0>        -0.1022
     26 C18        -1.1853    3.2779   -0.2565 C.ar      1 <0>        -0.0085
     27 C19        -1.5672    1.9372   -0.4350 C.ar      1 <0>        -0.1069
     28 C20        -2.8881    1.6167   -0.5029 C.ar      1 <0>        -0.0944
     29 C21        -3.8711    2.5997   -0.4034 C.ar      1 <0>        -0.1107
     30 C22        -3.5389    3.9073   -0.2244 C.ar      1 <0>        -0.1152
     31 C23        -2.1849    4.2768   -0.1500 C.ar      1 <0>        -0.0782
     32 C24        -1.8031    5.6176    0.0276 C.ar      1 <0>        -0.0021
     33 N3          1.6599   14.0646    0.7551 N.pl3     1 <0>        -0.7746
     34 H3         -0.8317   13.9400    0.4042 H         1 <0>         0.1429
     35 H4         -2.9647   13.0864   -0.4744 H         1 <0>         0.1536
     36 H5         -2.9884   11.1497   -1.9916 H         1 <0>         0.1441
     37 H6          1.2599   10.8820   -1.7520 H         1 <0>         0.1348
     38 H7          0.0327    9.6787   -3.4631 H         1 <0>         0.1054
     39 H8         -1.7413    9.7883   -3.5592 H         1 <0>         0.1058
     40 H9         -3.2031    8.6285   -2.7875 H         1 <0>         0.1271
     41 H10        -3.5594    8.3468   -4.5120 H         1 <0>         0.1092
     42 H11        -5.5107    7.6943   -3.1996 H         1 <0>         0.1529
     43 H12        -4.5028    6.6696   -2.1489 H         1 <0>         0.1355
     44 H13        -3.8239    4.1668   -4.6887 H         1 <0>         0.1502
     45 H14        -3.5386    4.6535   -3.0000 H         1 <0>         0.1356
     46 H15        -2.4397    6.0131   -5.5040 H         1 <0>         0.1017
     47 H16        -1.5093    5.0987   -4.2880 H         1 <0>         0.1367
     48 H17         1.0258    8.5878   -1.4938 H         1 <0>         0.4250
     49 H18         1.5421    5.2371    0.0478 H         1 <0>         0.1412
     50 H19         0.9413    2.8972   -0.2622 H         1 <0>         0.1420
     51 H20        -0.8163    1.1653   -0.5180 H         1 <0>         0.1387
     52 H21        -3.1789    0.5857   -0.6403 H         1 <0>         0.1350
     53 H22        -4.9122    2.3190   -0.4650 H         1 <0>         0.1316
     54 H23        -4.3114    4.6577   -0.1452 H         1 <0>         0.1272
     55 H24        -2.5540    6.3893    0.1104 H         1 <0>         0.1370
     56 H25         0.8285   14.4968    1.0057 H         1 <0>         0.4441
     57 H26         2.5031   14.3984    1.0995 H         1 <0>         0.4348
     58 N4          2.7422   12.3430   -0.4697 N.pl3     1 <0>        -0.7578
     59 H27         2.6774   11.5363   -1.1017 H         1 <0>         0.4577
     60 N5         -4.7982    5.9359   -4.1051 N.4       1 <0>        -0.5159
     61 H28        -4.8667    6.3064   -5.0603 H         1 <0>         0.4364
     62 H29        -5.6589    5.4264   -3.8732 H         1 <0>         0.4439
@<TRIPOS>BOND
     1    1   58 1
     2    2    3 1
     3    2   33 1
     4    2   58 2
     5    3    8 ar
     6    3    4 ar
     7    4    5 ar
     8    4   34 1
     9    5    6 ar
    10    5   35 1
    11    6    7 ar
    12    6   36 1
    13    7    8 ar
    14    7    9 1
    15    8   37 1
    16    9   10 1
    17    9   38 1
    18    9   39 1
    19   10   11 1
    20   10   12 1
    21   10   19 1
    22   12   13 2
    23   12   14 am
    24   14   18 1
    25   14   15 1
    26   15   16 1
    27   15   40 1
    28   15   41 1
    29   16   42 1
    30   16   43 1
    31   16   60 1
    32   17   18 1
    33   17   44 1
    34   17   45 1
    35   17   60 1
    36   18   46 1
    37   18   47 1
    38   19   20 1
    39   19   48 1
    40   20   21 2
    41   20   22 2
    42   20   23 1
    43   23   32 ar
    44   23   24 ar
    45   24   25 ar
    46   24   49 1
    47   25   26 ar
    48   25   50 1
    49   26   31 ar
    50   26   27 ar
    51   27   28 ar
    52   27   51 1
    53   28   29 ar
    54   28   52 1
    55   29   30 ar
    56   29   53 1
    57   30   31 ar
    58   30   54 1
    59   31   32 ar
    60   32   55 1
    61   33   56 1
    62   33   57 1
    63   58   59 1
    64   60   61 1
    65   60   62 1
@<TRIPOS>MOLECULE
ZINC02047416
   59    61     0     0     0
SMALL
USER_CHARGES

@<TRIPOS>ATOM
      1 H1          6.5095    6.1514    2.1422 H         1 <0>         0.4448
      2 C1          7.7996    4.8659    1.2323 C.cat     1 <0>         0.6014
      3 C2          7.8822    3.5308    0.5972 C.ar      1 <0>        -0.1516
      4 C3          9.0965    3.0721    0.0867 C.ar      1 <0>        -0.0555
      5 C4          9.1672    1.8273   -0.5039 C.ar      1 <0>        -0.1064
      6 C5          8.0365    1.0346   -0.5911 C.ar      1 <0>        -0.0461
      7 C6          6.8296    1.4837   -0.0864 C.ar      1 <0>        -0.0725
      8 C7          6.7451    2.7293    0.5021 C.ar      1 <0>        -0.0599
      9 C8          5.6029    0.6140   -0.1849 C.3       1 <0>        -0.0911
     10 C9          5.5030   -0.2698    1.0602 C.3       1 <0>         0.1392
     11 H2          5.5268    0.3558    1.9525 H         1 <0>         0.1170
     12 C10         4.2109   -1.0444    1.0240 C.2       1 <0>         0.4926
     13 O1          4.2289   -2.2468    0.8661 O.2       1 <0>        -0.5039
     14 N1          3.0352   -0.4011    1.1672 N.am      1 <0>        -0.6075
     15 C11         2.9998    1.0446    1.4266 C.3       1 <0>         0.0983
     16 C12         2.1549    1.3004    2.6786 C.3       1 <0>        -0.1385
     17 C13         0.7766    0.6601    2.4986 C.3       1 <0>        -0.1223
     18 C14         0.9338   -0.8520    2.3226 C.3       1 <0>        -0.1364
     19 C15         1.7647   -1.1322    1.0665 C.3       1 <0>         0.1105
     20 N2          6.6316   -1.2034    1.0881 N.pl3     1 <0>        -1.0956
     21 S1          7.3110   -1.6381    2.5344 S.o2      1 <0>         2.6918
     22 O2          8.3489   -2.5612    2.2344 O.2       1 <0>        -0.9471
     23 O3          7.5462   -0.4337    3.2509 O.2       1 <0>        -0.9591
     24 C16         6.0888   -2.5304    3.4370 C.ar      1 <0>        -0.6804
     25 C17         5.2272   -1.8586    4.2838 C.ar      1 <0>        -0.0222
     26 C18         4.2655   -2.5581    4.9885 C.ar      1 <0>        -0.1408
     27 C19         4.1715   -3.9307    4.8537 C.ar      1 <0>        -0.0191
     28 C20         5.0363   -4.6031    4.0104 C.ar      1 <0>        -0.1362
     29 C21         5.9951   -3.9030    3.3025 C.ar      1 <0>         0.0023
     30 C22         3.1262   -4.6939    5.6255 C.3       1 <0>        -0.1283
     31 N3          8.9237    5.6578    1.3201 N.pl3     1 <0>        -0.7789
     32 H3          9.9796    3.6903    0.1535 H         1 <0>         0.1396
     33 H4         10.1068    1.4710   -0.8995 H         1 <0>         0.1521
     34 H5          8.0966    0.0610   -1.0546 H         1 <0>         0.1467
     35 H6          5.8012    3.0807    0.8919 H         1 <0>         0.1353
     36 H7          5.6738   -0.0152   -1.0721 H         1 <0>         0.1056
     37 H8          4.7158    1.2434   -0.2557 H         1 <0>         0.1051
     38 H9          2.5546    1.5579    0.5743 H         1 <0>         0.0779
     39 H10         4.0133    1.4119    1.5884 H         1 <0>         0.0772
     40 H11         2.0406    2.3741    2.8273 H         1 <0>         0.0779
     41 H12         2.6487    0.8631    3.5463 H         1 <0>         0.0696
     42 H13         0.1650    0.8617    3.3781 H         1 <0>         0.0700
     43 H14         0.2934    1.0802    1.6164 H         1 <0>         0.0673
     44 H15         1.4391   -1.2691    3.1937 H         1 <0>         0.0678
     45 H16        -0.0497   -1.3102    2.2179 H         1 <0>         0.0793
     46 H17         1.2189   -0.7963    0.1848 H         1 <0>         0.0719
     47 H18         1.9633   -2.2012    0.9907 H         1 <0>         0.0954
     48 H19         6.9809   -1.5671    0.2595 H         1 <0>         0.4252
     49 H20         5.3033   -0.7867    4.3924 H         1 <0>         0.1301
     50 H21         3.5897   -2.0328    5.6471 H         1 <0>         0.1302
     51 H22         4.9629   -5.6754    3.9050 H         1 <0>         0.1344
     52 H23         6.6710   -4.4285    2.6439 H         1 <0>         0.1389
     53 H24         3.5364   -4.9998    6.5879 H         1 <0>         0.0823
     54 H25         2.2566   -4.0568    5.7872 H         1 <0>         0.0730
     55 H26         2.8294   -5.5771    5.0597 H         1 <0>         0.0753
     56 H27         9.7692    5.3407    0.9658 H         1 <0>         0.4435
     57 H28         8.8696    6.5324    1.7362 H         1 <0>         0.4318
     58 N4          6.6172    5.2403    1.6960 N.pl3     1 <0>        -0.7603
     59 H29         5.8088    4.6137    1.6066 H         1 <0>         0.4585
@<TRIPOS>BOND
     1    1   58 1
     2    2    3 1
     3    2   31 1
     4    2   58 2
     5    3    8 ar
     6    3    4 ar
     7    4    5 ar
     8    4   32 1
     9    5    6 ar
    10    5   33 1
    11    6    7 ar
    12    6   34 1
    13    7    8 ar
    14    7    9 1
    15    8   35 1
    16    9   10 1
    17    9   36 1
    18    9   37 1
    19   10   11 1
    20   10   12 1
    21   10   20 1
    22   12   13 2
    23   12   14 am
    24   14   19 1
    25   14   15 1
    26   15   16 1
    27   15   38 1
    28   15   39 1
    29   16   17 1
    30   16   40 1
    31   16   41 1
    32   17   18 1
    33   17   42 1
    34   17   43 1
    35   18   19 1
    36   18   44 1
    37   18   45 1
    38   19   46 1
    39   19   47 1
    40   20   21 1
    41   20   48 1
    42   21   22 2
    43   21   23 2
    44   21   24 1
    45   24   29 ar
    46   24   25 ar
    47   25   26 ar
    48   25   49 1
    49   26   27 ar
    50   26   50 1
    51   27   28 ar
    52   27   30 1
    53   28   29 ar
    54   28   51 1
    55   29   52 1
    56   30   53 1
    57   30   54 1
    58   30   55 1
    59   31   56 1
    60   31   57 1
    61   58   59 1
@<TRIPOS>MOLECULE
ZINC03814029
   62    64     0     0     0
SMALL
USER_CHARGES

@<TRIPOS>ATOM
      1 C1         -3.5431    1.7401   -2.4488 C.3       1 <0>        -0.1223
      2 C2         -4.1308    2.2256   -1.1488 C.2       1 <0>         0.1341
      3 C3         -5.1705    3.0899   -1.1675 C.2       1 <0>        -0.1781
      4 C4         -5.7248    3.5478    0.0368 C.2       1 <0>        -0.0993
      5 C5         -5.2011    3.1105    1.2222 C.2       1 <0>         0.0601
      6 C6         -4.1181    2.2043    1.2044 C.2       1 <0>         0.5313
      7 O1         -3.6421    1.8003    2.2534 O.2       1 <0>        -0.5411
      8 N1         -3.6084    1.7894    0.0289 N.am      1 <0>        -0.4701
      9 C7         -2.4820    0.8526    0.0185 C.3       1 <0>         0.0707
     10 C8         -1.1873    1.6238    0.0165 C.2       1 <0>         0.5007
     11 O2         -1.2037    2.8365    0.0232 O.2       1 <0>        -0.5098
     12 N2         -0.0111    0.9658    0.0074 N.am      1 <0>        -0.7313
     13 C9          1.2475    1.7155   -0.0006 C.3       1 <0>         0.1223
     14 C10         2.4238    0.7372   -0.0171 C.3       1 <0>        -0.1048
     15 C11         2.4385   -0.0646    1.2859 C.3       1 <0>        -0.1170
     16 C12         3.6148   -1.0429    1.2694 C.3       1 <0>        -0.1392
     17 C13         4.9245   -0.2635    1.1353 C.3       1 <0>         0.0282
     18 C14         4.9098    0.5383   -0.1677 C.3       1 <0>        -0.1409
     19 C15         3.7335    1.5166   -0.1512 C.3       1 <0>        -0.1124
     20 N3         -5.7360    3.5518    2.4389 N.pl3     1 <0>        -1.0338
     21 S1         -7.0103    4.6094    2.4482 S.o2      1 <0>         2.5975
     22 O3         -7.2691    4.8531    3.8240 O.2       1 <0>        -0.9335
     23 O4         -6.6098    5.6671    1.5879 O.2       1 <0>        -0.9324
     24 C16        -8.3861    3.6882    1.7072 C.3       1 <0>        -0.5810
     25 C17        -9.6118    4.5639    1.6646 C.ar      1 <0>        -0.1007
     26 C18       -10.4965    4.5666    2.7267 C.ar      1 <0>        -0.1027
     27 C19       -11.6181    5.3739    2.6899 C.ar      1 <0>        -0.1159
     28 C20       -11.8606    6.1701    1.5863 C.ar      1 <0>        -0.1047
     29 C21       -10.9789    6.1631    0.5217 C.ar      1 <0>        -0.1160
     30 C22        -9.8543    5.3601    0.5610 C.ar      1 <0>        -0.1032
     31 H1         -4.0581    0.8325   -2.7638 H         1 <0>         0.0915
     32 H2         -3.6633    2.5094   -3.2116 H         1 <0>         0.0969
     33 H3         -2.4830    1.5273   -2.3113 H         1 <0>         0.0693
     34 H4         -5.5747    3.4275   -2.1104 H         1 <0>         0.1576
     35 H5         -6.5557    4.2376    0.0281 H         1 <0>         0.1436
     36 H6         -2.5355    0.2301   -0.8747 H         1 <0>         0.1277
     37 H7         -2.5271    0.2204    0.9052 H         1 <0>         0.1327
     38 H8          0.0021   -0.0041    0.0020 H         1 <0>         0.4012
     39 H9          1.2883    2.3477   -0.8877 H         1 <0>         0.0758
     40 H10         1.3053    2.3381    0.8922 H         1 <0>         0.0736
     41 H11         2.3182    0.0562   -0.8616 H         1 <0>         0.0870
     42 H12         2.5442    0.6164    2.1304 H         1 <0>         0.0804
     43 H13         1.5054   -0.6199    1.3814 H         1 <0>         0.0861
     44 H14         3.5092   -1.7239    0.4249 H         1 <0>         0.0884
     45 H15         3.6253   -1.6142    2.1976 H         1 <0>         0.0901
     46 H16         5.0302    0.4175    1.9798 H         1 <0>         0.1406
     47 H17         4.8042   -0.1427   -1.0122 H         1 <0>         0.0890
     48 H18         5.8429    1.0936   -0.2632 H         1 <0>         0.0913
     49 H19         3.7230    2.0879   -1.0794 H         1 <0>         0.0907
     50 H20         3.8392    2.1976    0.6933 H         1 <0>         0.0808
     51 H21         6.0855   -1.7447    1.9701 H         1 <0>         0.4385
     52 H22         6.0135   -1.8032    0.3096 H         1 <0>         0.4348
     53 H23        -5.3601    3.2379    3.2762 H         1 <0>         0.4339
     54 H24        -8.1185    3.3881    0.6941 H         1 <0>         0.1453
     55 H25        -8.5938    2.8013    2.3059 H         1 <0>         0.1479
     56 H26       -10.3094    3.9412    3.5871 H         1 <0>         0.1311
     57 H27       -12.3068    5.3796    3.5218 H         1 <0>         0.1318
     58 H28       -12.7388    6.7980    1.5559 H         1 <0>         0.1302
     59 H29       -11.1683    6.7852   -0.3405 H         1 <0>         0.1319
     60 H30        -9.1654    5.3547   -0.2708 H         1 <0>         0.1309
     61 N4          6.0731   -1.1864    1.1181 N.4       1 <0>        -0.6463
     62 H31         6.9422   -0.6426    1.0613 H         1 <0>         0.4411
@<TRIPOS>BOND
     1    1    2 1
     2    1   31 1
     3    1   32 1
     4    1   33 1
     5    2    8 1
     6    2    3 2
     7    3    4 1
     8    3   34 1
     9    4    5 2
    10    4   35 1
    11    5    6 1
    12    5   20 1
    13    6    7 2
    14    6    8 am
    15    8    9 1
    16    9   10 1
    17    9   36 1
    18    9   37 1
    19   10   11 2
    20   10   12 am
    21   12   13 1
    22   12   38 1
    23   13   14 1
    24   13   39 1
    25   13   40 1
    26   14   19 1
    27   14   15 1
    28   14   41 1
    29   15   16 1
    30   15   42 1
    31   15   43 1
    32   16   17 1
    33   16   44 1
    34   16   45 1
    35   17   18 1
    36   17   46 1
    37   17   61 1
    38   18   19 1
    39   18   47 1
    40   18   48 1
    41   19   49 1
    42   19   50 1
    43   20   21 1
    44   20   53 1
    45   21   22 2
    46   21   23 2
    47   21   24 1
    48   24   25 1
    49   24   54 1
    50   24   55 1
    51   25   30 ar
    52   25   26 ar
    53   26   27 ar
    54   26   56 1
    55   27   28 ar
    56   27   57 1
    57   28   29 ar
    58   28   58 1
    59   29   30 ar
    60   29   59 1
    61   30   60 1
    62   51   61 1
    63   52   61 1
    64   61   62 1
@<TRIPOS>MOLECULE
ZINC03814111
   45    47     0     0     0
SMALL
USER_CHARGES

@<TRIPOS>ATOM
      1 C1          9.5395    3.9479   -4.0364 C.3       1 <0>        -0.1193
      2 C2          8.8033    4.2839   -2.7652 C.ar      1 <0>        -0.0258
      3 C3          7.5008    3.8567   -2.5888 C.ar      1 <0>        -0.1304
      4 C4          6.8191    4.1693   -1.4214 C.ar      1 <0>         0.1553
      5 C5          7.4491    4.9019   -0.4270 C.ar      1 <0>        -0.1914
      6 C6          8.7572    5.3247   -0.6041 C.ar      1 <0>         0.1085
      7 C7          9.4332    5.0140   -1.7758 C.ar      1 <0>        -0.1595
      8 O1          9.3775    6.0425    0.3689 O.3       1 <0>        -0.6555
      9 S1         10.1192    5.1907    1.3891 S.o2      1 <0>         2.6825
     10 O2         10.5242    6.0667    2.4321 O.2       1 <0>        -0.9193
     11 O3          9.3115    4.0459    1.6263 O.2       1 <0>        -0.9465
     12 C8         11.5933    4.6151    0.6141 C.ar      1 <0>        -0.7602
     13 C9         11.5998    3.4127   -0.0767 C.ar      1 <0>         0.0315
     14 C10        12.7811    3.0017   -0.6745 C.ar      1 <0>        -0.1924
     15 C11        13.9077    3.7936   -0.5547 C.ar      1 <0>         0.1603
     16 N1         13.8659    4.9291    0.1143 N.ar      1 <0>        -0.4928
     17 C12        12.7587    5.3534    0.6918 C.ar      1 <0>         0.2088
     18 O4          5.5368    3.7529   -1.2505 O.3       1 <0>        -0.3026
     19 C13         4.8985    4.1058   -0.0217 C.3       1 <0>         0.0381
     20 C14         3.4714    3.5542   -0.0116 C.3       1 <0>         0.1203
     21 N2          3.5137    2.0898   -0.0198 N.pl3     1 <0>        -0.7223
     22 C15         2.3288    1.3592   -0.0129 C.ar      1 <0>         0.2133
     23 C16         2.3424   -0.0379   -0.0205 C.ar      1 <0>        -0.2118
     24 C17         1.1268   -0.6964   -0.0124 C.ar      1 <0>         0.0840
     25 N3          0.0021   -0.0041    0.0020 N.ar      1 <0>        -0.2934
     26 N4         -0.0153    1.2788    0.0091 N.ar      1 <0>        -0.2077
     27 C18         1.0893    1.9974    0.0024 C.ar      1 <0>        -0.0242
     28 H1         10.0563    2.9958   -3.9162 H         1 <0>         0.0816
     29 H2          8.8286    3.8739   -4.8594 H         1 <0>         0.0784
     30 H3         10.2661    4.7309   -4.2533 H         1 <0>         0.0748
     31 H4          7.0119    3.2826   -3.3619 H         1 <0>         0.1456
     32 H5          6.9216    5.1424    0.4842 H         1 <0>         0.1463
     33 H6         10.4523    5.3435   -1.9144 H         1 <0>         0.1399
     34 H7         10.7049    2.8126   -0.1505 H         1 <0>         0.1522
     35 H8         12.8217    2.0726   -1.2235 H         1 <0>         0.1502
     36 H9         14.8330    3.4785   -1.0140 H         1 <0>         0.1691
     37 H10        12.7629    6.2889    1.2314 H         1 <0>         0.1758
     38 H11         4.8692    5.1911    0.0740 H         1 <0>         0.0892
     39 H12         5.4575    3.6824    0.8128 H         1 <0>         0.0810
     40 H13         2.9391    3.9073   -0.8948 H         1 <0>         0.0830
     41 H14         2.9554    3.8977    0.8851 H         1 <0>         0.0938
     42 H15         4.3674    1.6294   -0.0301 H         1 <0>         0.4102
     43 H16         3.2729   -0.5859   -0.0320 H         1 <0>         0.1453
     44 H17         1.0968   -1.7760   -0.0183 H         1 <0>         0.1701
     45 H18         1.0347    3.0760    0.0083 H         1 <0>         0.1658
@<TRIPOS>BOND
     1    1    2 1
     2    1   28 1
     3    1   29 1
     4    1   30 1
     5    2    7 ar
     6    2    3 ar
     7    3    4 ar
     8    3   31 1
     9    4    5 ar
    10    4   18 1
    11    5    6 ar
    12    5   32 1
    13    6    7 ar
    14    6    8 1
    15    7   33 1
    16    8    9 1
    17    9   10 2
    18    9   11 2
    19    9   12 1
    20   12   17 ar
    21   12   13 ar
    22   13   14 ar
    23   13   34 1
    24   14   15 ar
    25   14   35 1
    26   15   16 ar
    27   15   36 1
    28   16   17 ar
    29   17   37 1
    30   18   19 1
    31   19   20 1
    32   19   38 1
    33   19   39 1
    34   20   21 1
    35   20   40 1
    36   20   41 1
    37   21   22 1
    38   21   42 1
    39   22   27 ar
    40   22   23 ar
    41   23   24 ar
    42   23   43 1
    43   24   25 ar
    44   24   44 1
    45   25   26 ar
    46   26   27 ar
    47   27   45 1
@<TRIPOS>MOLECULE
ZINC03815818
   66    70     0     0     0
SMALL
USER_CHARGES

@<TRIPOS>ATOM
      1 C1        -13.4661    2.0684   11.3229 C.ar      1 <0>        -0.0626
      2 C2        -12.0841    2.0415   11.3121 C.ar      1 <0>        -0.1398
      3 C3        -11.3759    3.1128   10.8007 C.ar      1 <0>        -0.0234
      4 C4        -12.0498    4.2107   10.2993 C.ar      1 <0>        -0.6595
      5 C5        -13.4317    4.2397   10.3144 C.ar      1 <0>        -0.0231
      6 C6        -14.1400    3.1664   10.8218 C.ar      1 <0>        -0.1397
      7 S1        -11.1471    5.5763    9.6474 S.o2      1 <0>         2.5056
      8 O1         -9.8923    5.5325   10.3129 O.2       1 <0>        -0.9244
      9 O2        -12.0126    6.6921    9.8060 O.2       1 <0>        -0.9243
     10 C7        -10.9340    5.1963    7.8865 C.3       1 <0>        -0.6401
     11 C8        -10.1544    6.3267    7.2115 C.3       1 <0>         0.1502
     12 N1         -9.9823    6.0198    5.7894 N.am      1 <0>        -0.5712
     13 C9        -10.8367    6.3741    4.8040 C.2       1 <0>         0.7084
     14 O3        -11.8707    6.9968    4.9463 O.2       1 <0>        -0.5239
     15 N2        -10.3487    5.9227    3.6498 N.am      1 <0>        -0.4231
     16 N3         -9.1316    5.2572    3.9417 N.am      1 <0>        -0.4114
     17 C10        -8.9440    5.3384    5.2566 C.2       1 <0>         0.7131
     18 O4         -8.0014    4.8794    5.8716 O.2       1 <0>        -0.5223
     19 C11        -8.3379    4.6406    2.8748 C.3       1 <0>         0.1910
     20 H1         -7.7637    3.8055    3.2761 H         1 <0>         0.1463
     21 C12        -9.2998    4.1426    1.8202 C.2       1 <0>        -0.1652
     22 C13       -10.4210    4.7562    1.5518 C.2       1 <0>        -0.1346
     23 C14       -10.8474    6.0137    2.2745 C.3       1 <0>         0.1707
     24 C15        -7.4053    5.6616    2.2756 C.2       1 <0>         0.5053
     25 O5         -7.3880    6.7946    2.7079 O.2       1 <0>        -0.5137
     26 N4         -6.5905    5.3156    1.2594 N.am      1 <0>        -0.7114
     27 C16        -5.6839    6.3080    0.6769 C.3       1 <0>         0.1473
     28 C17        -5.3542    5.9139   -0.7642 C.3       1 <0>        -0.1265
     29 C18        -4.6815    4.5397   -0.7759 C.3       1 <0>        -0.1097
     30 C19        -3.3917    4.5963    0.0452 C.3       1 <0>        -0.0005
     31 C20        -3.7214    4.9904    1.4863 C.3       1 <0>        -0.1035
     32 C21        -4.3941    6.3646    1.4980 C.3       1 <0>        -0.1322
     33 C22        -2.7292    3.2428    0.0337 C.2       1 <0>         0.0338
     34 C23        -3.3474    2.0497    0.0209 C.2       1 <0>        -0.0946
     35 N5         -2.4089    1.0878    0.0142 N.pl3     1 <0>        -0.5582
     36 C24        -1.2198    1.6419    0.0168 C.2       1 <0>         0.4587
     37 N6         -1.3753    2.9932    0.0303 N.2       1 <0>        -0.5323
     38 H2         -2.5888    0.1041    0.0082 H         1 <0>         0.4188
     39 N7         -0.0111    0.9658    0.0074 N.pl3     1 <0>        -0.8422
     40 H3        -14.0194    1.2313   11.7224 H         1 <0>         0.1327
     41 H4        -11.5576    1.1836   11.7035 H         1 <0>         0.1350
     42 H5        -10.2961    3.0920   10.7926 H         1 <0>         0.1437
     43 H6        -13.9581    5.0993    9.9267 H         1 <0>         0.1440
     44 H7        -15.2198    3.1873   10.8299 H         1 <0>         0.1352
     45 H8        -11.9118    5.0975    7.4152 H         1 <0>         0.1450
     46 H9        -10.3834    4.2616    7.7805 H         1 <0>         0.1445
     47 H10        -9.1766    6.4255    7.6828 H         1 <0>         0.1177
     48 H11       -10.7050    7.2614    7.3175 H         1 <0>         0.1184
     49 H12        -9.0508    3.2479    1.2689 H         1 <0>         0.1479
     50 H13       -11.0665    4.3507    0.7868 H         1 <0>         0.1467
     51 H14       -10.4189    6.8868    1.7825 H         1 <0>         0.1003
     52 H15       -11.9349    6.0871    2.2793 H         1 <0>         0.1224
     53 H16        -6.6043    4.4094    0.9136 H         1 <0>         0.4005
     54 H17        -6.1631    7.2870    0.6853 H         1 <0>         0.0903
     55 H18        -4.6796    6.6523   -1.1976 H         1 <0>         0.0840
     56 H19        -6.2730    5.8736   -1.3492 H         1 <0>         0.0727
     57 H20        -4.4466    4.2589   -1.8026 H         1 <0>         0.0713
     58 H21        -5.3560    3.8013   -0.3425 H         1 <0>         0.0598
     59 H22        -2.7172    5.3347   -0.3882 H         1 <0>         0.0849
     60 H23        -4.3960    4.2520    1.9197 H         1 <0>         0.0605
     61 H24        -2.8026    5.0307    2.0713 H         1 <0>         0.0665
     62 H25        -3.7196    7.1030    1.0646 H         1 <0>         0.0764
     63 H26        -4.6290    6.6454    2.5247 H         1 <0>         0.0698
     64 H27        -4.4156    1.8910    0.0212 H         1 <0>         0.1677
     65 H28         0.0021   -0.0041    0.0020 H         1 <0>         0.4053
     66 H29         0.8223    1.4622    0.0021 H         1 <0>         0.4210
@<TRIPOS>BOND
     1    1    6 ar
     2    1    2 ar
     3    1   40 1
     4    2    3 ar
     5    2   41 1
     6    3    4 ar
     7    3   42 1
     8    4    5 ar
     9    4    7 1
    10    5    6 ar
    11    5   43 1
    12    6   44 1
    13    7    8 2
    14    7    9 2
    15    7   10 1
    16   10   11 1
    17   10   45 1
    18   10   46 1
    19   11   12 1
    20   11   47 1
    21   11   48 1
    22   12   17 am
    23   12   13 am
    24   13   14 2
    25   13   15 am
    26   15   23 1
    27   15   16 1
    28   16   17 am
    29   16   19 1
    30   17   18 2
    31   19   20 1
    32   19   21 1
    33   19   24 1
    34   21   22 2
    35   21   49 1
    36   22   23 1
    37   22   50 1
    38   23   51 1
    39   23   52 1
    40   24   25 2
    41   24   26 am
    42   26   27 1
    43   26   53 1
    44   27   32 1
    45   27   28 1
    46   27   54 1
    47   28   29 1
    48   28   55 1
    49   28   56 1
    50   29   30 1
    51   29   57 1
    52   29   58 1
    53   30   31 1
    54   30   33 1
    55   30   59 1
    56   31   32 1
    57   31   60 1
    58   31   61 1
    59   32   62 1
    60   32   63 1
    61   33   37 1
    62   33   34 2
    63   34   35 1
    64   34   64 1
    65   35   36 1
    66   35   38 1
    67   36   39 1
    68   36   37 2
    69   39   65 1
    70   39   66 1
@<TRIPOS>MOLECULE
ZINC03815818
   67    71     0     0     0
SMALL
USER_CHARGES

@<TRIPOS>ATOM
      1 C1        -13.4661    2.0684   11.3229 C.ar      1 <0>        -0.0612
      2 C2        -12.0841    2.0415   11.3121 C.ar      1 <0>        -0.1398
      3 C3        -11.3759    3.1128   10.8007 C.ar      1 <0>        -0.0243
      4 C4        -12.0498    4.2107   10.2993 C.ar      1 <0>        -0.6603
      5 C5        -13.4317    4.2397   10.3144 C.ar      1 <0>        -0.0229
      6 C6        -14.1400    3.1664   10.8218 C.ar      1 <0>        -0.1386
      7 S1        -11.1471    5.5763    9.6474 S.o2      1 <0>         2.5058
      8 O1         -9.8923    5.5325   10.3129 O.2       1 <0>        -0.9245
      9 O2        -12.0126    6.6921    9.8060 O.2       1 <0>        -0.9222
     10 C7        -10.9340    5.1963    7.8865 C.3       1 <0>        -0.6415
     11 C8        -10.1544    6.3267    7.2115 C.3       1 <0>         0.1494
     12 N1         -9.9823    6.0198    5.7894 N.am      1 <0>        -0.5703
     13 C9        -10.8367    6.3741    4.8040 C.2       1 <0>         0.7081
     14 O3        -11.8707    6.9968    4.9463 O.2       1 <0>        -0.5170
     15 N2        -10.3487    5.9227    3.6498 N.am      1 <0>        -0.4247
     16 N3         -9.1316    5.2572    3.9417 N.am      1 <0>        -0.4143
     17 C10        -8.9440    5.3384    5.2566 C.2       1 <0>         0.7150
     18 O4         -8.0014    4.8794    5.8716 O.2       1 <0>        -0.5248
     19 C11        -8.3379    4.6406    2.8748 C.3       1 <0>         0.1944
     20 H1         -7.7637    3.8055    3.2761 H         1 <0>         0.1443
     21 C12        -9.2998    4.1426    1.8202 C.2       1 <0>        -0.1743
     22 C13       -10.4210    4.7562    1.5518 C.2       1 <0>        -0.1256
     23 C14       -10.8474    6.0137    2.2745 C.3       1 <0>         0.1685
     24 C15        -7.4053    5.6616    2.2756 C.2       1 <0>         0.5050
     25 O5         -7.3880    6.7946    2.7079 O.2       1 <0>        -0.5045
     26 N4         -6.5905    5.3156    1.2594 N.am      1 <0>        -0.7186
     27 C16        -5.6839    6.3080    0.6769 C.3       1 <0>         0.1437
     28 C17        -5.3542    5.9139   -0.7642 C.3       1 <0>        -0.1278
     29 C18        -4.6815    4.5397   -0.7759 C.3       1 <0>        -0.1131
     30 C19        -3.3917    4.5963    0.0452 C.3       1 <0>        -0.0247
     31 C20        -3.7214    4.9904    1.4863 C.3       1 <0>        -0.1108
     32 C21        -4.3941    6.3646    1.4980 C.3       1 <0>        -0.1340
     33 C22        -2.7292    3.2428    0.0337 C.2       1 <0>         0.0689
     34 C23        -3.3474    2.0496    0.0302 C.2       1 <0>         0.0036
     35 C24        -1.2198    1.6419    0.0168 C.cat     1 <0>         0.5910
     36 N5         -1.3753    2.9932    0.0303 N.pl3     1 <0>        -0.5562
     37 H2         -0.6446    3.6759    0.0366 H         1 <0>         0.4669
     38 N6         -0.0111    0.9658    0.0074 N.pl3     1 <0>        -0.8047
     39 H3        -14.0194    1.2313   11.7224 H         1 <0>         0.1336
     40 H4        -11.5576    1.1836   11.7035 H         1 <0>         0.1351
     41 H5        -10.2961    3.0920   10.7926 H         1 <0>         0.1429
     42 H6        -13.9581    5.0993    9.9267 H         1 <0>         0.1443
     43 H7        -15.2198    3.1873   10.8299 H         1 <0>         0.1362
     44 H8        -11.9118    5.0975    7.4152 H         1 <0>         0.1454
     45 H9        -10.3834    4.2616    7.7805 H         1 <0>         0.1437
     46 H10        -9.1766    6.4255    7.6828 H         1 <0>         0.1180
     47 H11       -10.7050    7.2614    7.3175 H         1 <0>         0.1197
     48 H12        -9.0508    3.2479    1.2689 H         1 <0>         0.1468
     49 H13       -11.0665    4.3507    0.7868 H         1 <0>         0.1481
     50 H14       -10.4189    6.8868    1.7825 H         1 <0>         0.1010
     51 H15       -11.9349    6.0871    2.2793 H         1 <0>         0.1250
     52 H16        -6.6043    4.4094    0.9136 H         1 <0>         0.3980
     53 H17        -6.1631    7.2870    0.6853 H         1 <0>         0.0977
     54 H18        -4.6796    6.6523   -1.1976 H         1 <0>         0.0884
     55 H19        -6.2730    5.8736   -1.3492 H         1 <0>         0.0844
     56 H20        -4.4466    4.2589   -1.8026 H         1 <0>         0.0813
     57 H21        -5.3560    3.8013   -0.3425 H         1 <0>         0.0699
     58 H22        -2.7172    5.3347   -0.3882 H         1 <0>         0.1032
     59 H23        -4.3960    4.2520    1.9197 H         1 <0>         0.0735
     60 H24        -2.8026    5.0307    2.0713 H         1 <0>         0.0699
     61 H25        -3.7196    7.1030    1.0646 H         1 <0>         0.0806
     62 H26        -4.6290    6.6454    2.5247 H         1 <0>         0.0805
     63 H27        -4.4156    1.8909    0.0354 H         1 <0>         0.2183
     64 H28         0.0021   -0.0041    0.0020 H         1 <0>         0.4400
     65 H29         0.8223    1.4622    0.0021 H         1 <0>         0.4399
     66 N7         -2.4087    1.0887    0.0198 N.pl3     1 <0>        -0.5253
     67 H30        -2.5934    0.0787    0.0150 H         1 <0>         0.4759
@<TRIPOS>BOND
     1    1    6 ar
     2    1    2 ar
     3    1   39 1
     4    2    3 ar
     5    2   40 1
     6    3    4 ar
     7    3   41 1
     8    4    5 ar
     9    4    7 1
    10    5    6 ar
    11    5   42 1
    12    6   43 1
    13    7    8 2
    14    7    9 2
    15    7   10 1
    16   10   11 1
    17   10   44 1
    18   10   45 1
    19   11   12 1
    20   11   46 1
    21   11   47 1
    22   12   17 am
    23   12   13 am
    24   13   14 2
    25   13   15 am
    26   15   23 1
    27   15   16 1
    28   16   17 am
    29   16   19 1
    30   17   18 2
    31   19   20 1
    32   19   21 1
    33   19   24 1
    34   21   22 2
    35   21   48 1
    36   22   23 1
    37   22   49 1
    38   23   50 1
    39   23   51 1
    40   24   25 2
    41   24   26 am
    42   26   27 1
    43   26   52 1
    44   27   32 1
    45   27   28 1
    46   27   53 1
    47   28   29 1
    48   28   54 1
    49   28   55 1
    50   29   30 1
    51   29   56 1
    52   29   57 1
    53   30   31 1
    54   30   33 1
    55   30   58 1
    56   31   32 1
    57   31   59 1
    58   31   60 1
    59   32   61 1
    60   32   62 1
    61   33   36 1
    62   33   34 2
    63   34   63 1
    64   34   66 1
    65   35   36 1
    66   35   38 1
    67   35   66 2
    68   36   37 1
    69   38   64 1
    70   38   65 1
    71   66   67 1
@<TRIPOS>MOLECULE
ZINC03815818
   66    70     0     0     0
SMALL
USER_CHARGES

@<TRIPOS>ATOM
      1 C1        -13.4661    2.0684   11.3229 C.ar      1 <0>        -0.0626
      2 C2        -12.0841    2.0415   11.3121 C.ar      1 <0>        -0.1398
      3 C3        -11.3759    3.1128   10.8007 C.ar      1 <0>        -0.0234
      4 C4        -12.0498    4.2107   10.2993 C.ar      1 <0>        -0.6595
      5 C5        -13.4317    4.2397   10.3144 C.ar      1 <0>        -0.0231
      6 C6        -14.1400    3.1664   10.8218 C.ar      1 <0>        -0.1397
      7 S1        -11.1471    5.5763    9.6474 S.o2      1 <0>         2.5056
      8 O1         -9.8923    5.5325   10.3129 O.2       1 <0>        -0.9244
      9 O2        -12.0126    6.6921    9.8060 O.2       1 <0>        -0.9243
     10 C7        -10.9340    5.1963    7.8865 C.3       1 <0>        -0.6401
     11 C8        -10.1544    6.3267    7.2115 C.3       1 <0>         0.1502
     12 N1         -9.9823    6.0198    5.7894 N.am      1 <0>        -0.5712
     13 C9        -10.8367    6.3741    4.8040 C.2       1 <0>         0.7084
     14 O3        -11.8707    6.9968    4.9463 O.2       1 <0>        -0.5239
     15 N2        -10.3487    5.9227    3.6498 N.am      1 <0>        -0.4231
     16 N3         -9.1316    5.2572    3.9417 N.am      1 <0>        -0.4114
     17 C10        -8.9440    5.3384    5.2566 C.2       1 <0>         0.7131
     18 O4         -8.0014    4.8794    5.8716 O.2       1 <0>        -0.5223
     19 C11        -8.3379    4.6406    2.8748 C.3       1 <0>         0.1910
     20 H1         -7.7637    3.8055    3.2761 H         1 <0>         0.1463
     21 C12        -9.2998    4.1426    1.8202 C.2       1 <0>        -0.1652
     22 C13       -10.4210    4.7562    1.5518 C.2       1 <0>        -0.1346
     23 C14       -10.8474    6.0137    2.2745 C.3       1 <0>         0.1707
     24 C15        -7.4053    5.6616    2.2756 C.2       1 <0>         0.5053
     25 O5         -7.3880    6.7946    2.7079 O.2       1 <0>        -0.5137
     26 N4         -6.5905    5.3156    1.2594 N.am      1 <0>        -0.7114
     27 C16        -5.6839    6.3080    0.6769 C.3       1 <0>         0.1473
     28 C17        -5.3542    5.9139   -0.7642 C.3       1 <0>        -0.1265
     29 C18        -4.6815    4.5397   -0.7759 C.3       1 <0>        -0.1097
     30 C19        -3.3917    4.5963    0.0452 C.3       1 <0>        -0.0005
     31 C20        -3.7214    4.9904    1.4863 C.3       1 <0>        -0.1035
     32 C21        -4.3941    6.3646    1.4980 C.3       1 <0>        -0.1322
     33 C22        -2.7292    3.2428    0.0337 C.2       1 <0>         0.0338
     34 C23        -3.3474    2.0497    0.0209 C.2       1 <0>        -0.0946
     35 N5         -2.4089    1.0878    0.0142 N.pl3     1 <0>        -0.5582
     36 C24        -1.2198    1.6419    0.0168 C.2       1 <0>         0.4587
     37 N6         -1.3753    2.9932    0.0303 N.2       1 <0>        -0.5323
     38 H2         -2.5888    0.1041    0.0082 H         1 <0>         0.4188
     39 N7         -0.0111    0.9658    0.0074 N.pl3     1 <0>        -0.8422
     40 H3        -14.0194    1.2313   11.7224 H         1 <0>         0.1327
     41 H4        -11.5576    1.1836   11.7035 H         1 <0>         0.1350
     42 H5        -10.2961    3.0920   10.7926 H         1 <0>         0.1437
     43 H6        -13.9581    5.0993    9.9267 H         1 <0>         0.1440
     44 H7        -15.2198    3.1873   10.8299 H         1 <0>         0.1352
     45 H8        -11.9118    5.0975    7.4152 H         1 <0>         0.1450
     46 H9        -10.3834    4.2616    7.7805 H         1 <0>         0.1445
     47 H10        -9.1766    6.4255    7.6828 H         1 <0>         0.1177
     48 H11       -10.7050    7.2614    7.3175 H         1 <0>         0.1184
     49 H12        -9.0508    3.2479    1.2689 H         1 <0>         0.1479
     50 H13       -11.0665    4.3507    0.7868 H         1 <0>         0.1467
     51 H14       -10.4189    6.8868    1.7825 H         1 <0>         0.1003
     52 H15       -11.9349    6.0871    2.2793 H         1 <0>         0.1224
     53 H16        -6.6043    4.4094    0.9136 H         1 <0>         0.4005
     54 H17        -6.1631    7.2870    0.6853 H         1 <0>         0.0903
     55 H18        -4.6796    6.6523   -1.1976 H         1 <0>         0.0840
     56 H19        -6.2730    5.8736   -1.3492 H         1 <0>         0.0727
     57 H20        -4.4466    4.2589   -1.8026 H         1 <0>         0.0713
     58 H21        -5.3560    3.8013   -0.3425 H         1 <0>         0.0598
     59 H22        -2.7172    5.3347   -0.3882 H         1 <0>         0.0849
     60 H23        -4.3960    4.2520    1.9197 H         1 <0>         0.0605
     61 H24        -2.8026    5.0307    2.0713 H         1 <0>         0.0665
     62 H25        -3.7196    7.1030    1.0646 H         1 <0>         0.0764
     63 H26        -4.6290    6.6454    2.5247 H         1 <0>         0.0698
     64 H27        -4.4156    1.8910    0.0212 H         1 <0>         0.1677
     65 H28         0.0021   -0.0041    0.0020 H         1 <0>         0.4053
     66 H29         0.8223    1.4622    0.0021 H         1 <0>         0.4210
@<TRIPOS>BOND
     1    1    6 ar
     2    1    2 ar
     3    1   40 1
     4    2    3 ar
     5    2   41 1
     6    3    4 ar
     7    3   42 1
     8    4    5 ar
     9    4    7 1
    10    5    6 ar
    11    5   43 1
    12    6   44 1
    13    7    8 2
    14    7    9 2
    15    7   10 1
    16   10   11 1
    17   10   45 1
    18   10   46 1
    19   11   12 1
    20   11   47 1
    21   11   48 1
    22   12   17 am
    23   12   13 am
    24   13   14 2
    25   13   15 am
    26   15   23 1
    27   15   16 1
    28   16   17 am
    29   16   19 1
    30   17   18 2
    31   19   20 1
    32   19   21 1
    33   19   24 1
    34   21   22 2
    35   21   49 1
    36   22   23 1
    37   22   50 1
    38   23   51 1
    39   23   52 1
    40   24   25 2
    41   24   26 am
    42   26   27 1
    43   26   53 1
    44   27   32 1
    45   27   28 1
    46   27   54 1
    47   28   29 1
    48   28   55 1
    49   28   56 1
    50   29   30 1
    51   29   57 1
    52   29   58 1
    53   30   31 1
    54   30   33 1
    55   30   59 1
    56   31   32 1
    57   31   60 1
    58   31   61 1
    59   32   62 1
    60   32   63 1
    61   33   37 1
    62   33   34 2
    63   34   35 1
    64   34   64 1
    65   35   36 1
    66   35   38 1
    67   36   39 1
    68   36   37 2
    69   39   65 1
    70   39   66 1
@<TRIPOS>MOLECULE
ZINC03831937
   57    59     0     0     0
SMALL
USER_CHARGES

@<TRIPOS>ATOM
      1 C1         -6.4837    8.2890   -2.4928 C.3       1 <0>        -0.1066
      2 C2         -7.8009    7.5917   -2.7160 C.2       1 <0>         0.0263
      3 C3         -8.9444    8.3088   -2.7044 C.2       1 <0>         0.0340
      4 N1        -10.1326    7.7367   -2.8972 N.2       1 <0>        -0.4975
      5 C4        -10.2295    6.4414   -3.1072 C.2       1 <0>         0.3513
      6 C5         -9.0076    5.6293   -3.1325 C.2       1 <0>         0.4958
      7 O1         -9.0610    4.4271   -3.3295 O.2       1 <0>        -0.5316
      8 N2         -7.8217    6.2449   -2.9273 N.am      1 <0>        -0.4656
      9 C6         -6.5748    5.4759   -2.9379 C.3       1 <0>         0.0774
     10 C7         -6.2695    4.9947   -1.5428 C.2       1 <0>         0.5043
     11 O2         -7.0197    5.2671   -0.6297 O.2       1 <0>        -0.5021
     12 N3         -5.1629    4.2615   -1.3100 N.am      1 <0>        -0.7356
     13 C8         -4.8662    3.7936    0.0462 C.3       1 <0>         0.1666
     14 C9         -3.5835    3.0026    0.0354 C.ar      1 <0>        -0.1620
     15 C10        -3.6156    1.6142    0.0280 C.ar      1 <0>         0.0657
     16 C11        -2.4159    0.9263    0.0185 C.ar      1 <0>        -0.2024
     17 C12        -1.2242    1.6444    0.0168 C.ar      1 <0>         0.4680
     18 C13        -2.3649    3.6507    0.0331 C.ar      1 <0>         0.2084
     19 C14        -2.3236    5.1571    0.0411 C.3       1 <0>        -0.1556
     20 N4         -0.0111    0.9658    0.0074 N.pl3     1 <0>        -0.8180
     21 N5        -11.4707    5.8519   -3.3080 N.pl3     1 <0>        -0.6904
     22 C15       -12.6837    6.6732   -3.2867 C.3       1 <0>         0.1390
     23 C16       -13.9052    5.7851   -3.5322 C.3       1 <0>        -0.0936
     24 C17       -15.1530    6.6298   -3.5103 C.ar      1 <0>        -0.0846
     25 C18       -15.8319    6.8293   -2.3228 C.ar      1 <0>        -0.1135
     26 C19       -16.9735    7.6085   -2.3019 C.ar      1 <0>        -0.1176
     27 C20       -17.4423    8.1793   -3.4704 C.ar      1 <0>        -0.1192
     28 C21       -16.7665    7.9752   -4.6589 C.ar      1 <0>        -0.1174
     29 C22       -15.6217    7.2006   -4.6788 C.ar      1 <0>        -0.1133
     30 H1         -6.0781    8.6146   -3.4508 H         1 <0>         0.0823
     31 H2         -6.6358    9.1556   -1.8493 H         1 <0>         0.0910
     32 H3         -5.7846    7.6014   -2.0171 H         1 <0>         0.0612
     33 H4         -8.8952    9.3742   -2.5347 H         1 <0>         0.1699
     34 H5         -5.7605    6.1091   -3.2901 H         1 <0>         0.1275
     35 H6         -6.6821    4.6188   -3.6026 H         1 <0>         0.1313
     36 H7         -4.5629    4.0436   -2.0403 H         1 <0>         0.4039
     37 H8         -5.6805    3.1604    0.3985 H         1 <0>         0.1002
     38 H9         -4.7588    4.6508    0.7109 H         1 <0>         0.0965
     39 H10        -4.5563    1.0837    0.0299 H         1 <0>         0.1782
     40 H11        -2.4042   -0.1536    0.0130 H         1 <0>         0.1862
     41 H12        -2.3088    5.5147    1.0707 H         1 <0>         0.1182
     42 H13        -1.4265    5.4988   -0.4751 H         1 <0>         0.0990
     43 H14        -3.2058    5.5475   -0.4664 H         1 <0>         0.1144
     44 H15         0.0021   -0.0041    0.0020 H         1 <0>         0.4405
     45 H16         0.8223    1.4622    0.0021 H         1 <0>         0.4225
     46 H17       -11.5345    4.8964   -3.4622 H         1 <0>         0.4163
     47 H18       -12.7768    7.1587   -2.3153 H         1 <0>         0.0726
     48 H19       -12.6229    7.4313   -4.0675 H         1 <0>         0.0731
     49 H20       -13.8121    5.2995   -4.5036 H         1 <0>         0.0804
     50 H21       -13.9660    5.0270   -2.7514 H         1 <0>         0.0800
     51 H22       -15.4681    6.3797   -1.4107 H         1 <0>         0.1217
     52 H23       -17.5013    7.7683   -1.3733 H         1 <0>         0.1233
     53 H24       -18.3363    8.7850   -3.4546 H         1 <0>         0.1230
     54 H25       -17.1328    8.4211   -5.5718 H         1 <0>         0.1235
     55 H26       -15.0938    7.0411   -5.6074 H         1 <0>         0.1220
     56 N6         -1.1667    3.0074    0.0301 N.ar      1 <0>        -0.5370
     57 H27        -0.2746    3.5158    0.0373 H         1 <0>         0.4679
@<TRIPOS>BOND
     1    1    2 1
     2    1   30 1
     3    1   31 1
     4    1   32 1
     5    2    8 1
     6    2    3 2
     7    3    4 1
     8    3   33 1
     9    4    5 2
    10    5    6 1
    11    5   21 1
    12    6    7 2
    13    6    8 am
    14    8    9 1
    15    9   10 1
    16    9   34 1
    17    9   35 1
    18   10   11 2
    19   10   12 am
    20   12   13 1
    21   12   36 1
    22   13   14 1
    23   13   37 1
    24   13   38 1
    25   14   18 ar
    26   14   15 ar
    27   15   16 ar
    28   15   39 1
    29   16   17 ar
    30   16   40 1
    31   17   20 1
    32   17   56 ar
    33   18   19 1
    34   18   56 ar
    35   19   41 1
    36   19   42 1
    37   19   43 1
    38   20   44 1
    39   20   45 1
    40   21   22 1
    41   21   46 1
    42   22   23 1
    43   22   47 1
    44   22   48 1
    45   23   24 1
    46   23   49 1
    47   23   50 1
    48   24   29 ar
    49   24   25 ar
    50   25   26 ar
    51   25   51 1
    52   26   27 ar
    53   26   52 1
    54   27   28 ar
    55   27   53 1
    56   28   29 ar
    57   28   54 1
    58   29   55 1
    59   56   57 1
@<TRIPOS>MOLECULE
ZINC03832368
   44    46     0     0     0
SMALL
USER_CHARGES

@<TRIPOS>ATOM
      1 H1         -0.6386    3.7587    0.0368 H         1 <0>         0.4401
      2 C1         -0.9995    1.7558   -0.0469 C.cat     1 <0>         0.6021
      3 C2         -2.0880    0.7550   -0.0545 C.ar      1 <0>        -0.2317
      4 C3         -1.7864   -0.6057   -0.1378 C.ar      1 <0>        -0.0003
      5 C4         -2.8019   -1.5359   -0.1399 C.ar      1 <0>        -0.2019
      6 C5         -4.1280   -1.1202   -0.0697 C.ar      1 <0>         0.2851
      7 C6         -4.4314    0.2354    0.0080 C.ar      1 <0>        -0.1947
      8 C7         -3.4195    1.1695    0.0157 C.ar      1 <0>        -0.0071
      9 N1         -5.1530   -2.0626   -0.0778 N.pl3     1 <0>        -0.7109
     10 C8         -4.8349   -3.4903   -0.1597 C.3       1 <0>         0.1562
     11 C9         -6.1117   -4.2907   -0.1515 C.ar      1 <0>        -0.1285
     12 C10        -6.6490   -4.7207    1.0478 C.ar      1 <0>        -0.0783
     13 C11        -7.8223   -5.4498    1.0585 C.ar      1 <0>        -0.1236
     14 C12        -8.4559   -5.7597   -0.1364 C.ar      1 <0>         0.1102
     15 C13        -7.9116   -5.3318   -1.3389 C.ar      1 <0>        -0.1406
     16 C14        -6.7409   -4.5986   -1.3437 C.ar      1 <0>        -0.0793
     17 O1         -9.6078   -6.4807   -0.1289 O.3       1 <0>        -0.2590
     18 C15        -9.5791   -7.7341   -0.6530 C.ar      1 <0>         0.1148
     19 C16        -8.3753   -8.2884   -1.0636 C.ar      1 <0>        -0.1954
     20 C17        -8.3483   -9.5649   -1.5911 C.ar      1 <0>        -0.0823
     21 C18        -9.5210  -10.2859   -1.7199 C.ar      1 <0>        -0.1468
     22 C19       -10.7228   -9.7337   -1.3168 C.ar      1 <0>        -0.0804
     23 C20       -10.7547   -8.4596   -0.7838 C.ar      1 <0>        -0.1415
     24 N2          0.3144    1.3454   -0.1163 N.pl3     1 <0>        -0.7911
     25 H2         -0.7575   -0.9286   -0.1964 H         1 <0>         0.1348
     26 H3         -2.5690   -2.5887   -0.1998 H         1 <0>         0.1439
     27 H4         -5.4614    0.5554    0.0627 H         1 <0>         0.1439
     28 H5         -3.6556    2.2216    0.0765 H         1 <0>         0.1336
     29 H6         -6.0778   -1.7738   -0.0293 H         1 <0>         0.4134
     30 H7         -4.2878   -3.6884   -1.0813 H         1 <0>         0.0836
     31 H8         -4.2218   -3.7755    0.6952 H         1 <0>         0.0839
     32 H9         -6.1530   -4.4829    1.9773 H         1 <0>         0.1345
     33 H10        -8.2439   -5.7816    1.9958 H         1 <0>         0.1390
     34 H11        -8.4031   -5.5714   -2.2702 H         1 <0>         0.1359
     35 H12        -6.3168   -4.2653   -2.2793 H         1 <0>         0.1326
     36 H13        -7.4595   -7.7239   -0.9673 H         1 <0>         0.1266
     37 H14        -7.4110   -9.9983   -1.9073 H         1 <0>         0.1277
     38 H15        -9.4983  -11.2821   -2.1363 H         1 <0>         0.1286
     39 H16       -11.6374  -10.2989   -1.4184 H         1 <0>         0.1348
     40 H17       -11.6936   -8.0286   -0.4693 H         1 <0>         0.1344
     41 H18         0.5250    0.4001   -0.1701 H         1 <0>         0.4401
     42 H19         1.0283    2.0021   -0.1154 H         1 <0>         0.4278
     43 N3         -1.3532    3.0308    0.0284 N.pl3     1 <0>        -0.7712
     44 H20        -2.3465    3.2859    0.0782 H         1 <0>         0.4570
@<TRIPOS>BOND
     1    1   43 1
     2    2    3 1
     3    2   24 1
     4    2   43 2
     5    3    8 ar
     6    3    4 ar
     7    4    5 ar
     8    4   25 1
     9    5    6 ar
    10    5   26 1
    11    6    7 ar
    12    6    9 1
    13    7    8 ar
    14    7   27 1
    15    8   28 1
    16    9   10 1
    17    9   29 1
    18   10   11 1
    19   10   30 1
    20   10   31 1
    21   11   16 ar
    22   11   12 ar
    23   12   13 ar
    24   12   32 1
    25   13   14 ar
    26   13   33 1
    27   14   15 ar
    28   14   17 1
    29   15   16 ar
    30   15   34 1
    31   16   35 1
    32   17   18 1
    33   18   23 ar
    34   18   19 ar
    35   19   20 ar
    36   19   36 1
    37   20   21 ar
    38   20   37 1
    39   21   22 ar
    40   21   38 1
    41   22   23 ar
    42   22   39 1
    43   23   40 1
    44   24   41 1
    45   24   42 1
    46   43   44 1
@<TRIPOS>MOLECULE
ZINC03834109
   46    49     0     0     0
SMALL
USER_CHARGES

@<TRIPOS>ATOM
      1 C1         -0.1637    8.1075    0.0436 C.ar      1 <0>        -0.1053
      2 C2         -0.9261    7.4043   -0.8715 C.ar      1 <0>        -0.1184
      3 C3         -0.8965    6.0245   -0.8829 C.ar      1 <0>        -0.1026
      4 C4         -0.0962    5.3399    0.0297 C.ar      1 <0>        -0.0685
      5 C5          0.6658    6.0534    0.9530 C.ar      1 <0>        -0.0868
      6 C6          0.6325    7.4332    0.9517 C.ar      1 <0>        -0.1217
      7 C7         -0.0601    3.8569    0.0224 C.ar      1 <0>        -0.0550
      8 C8         -1.2487    3.1292    0.0299 C.ar      1 <0>        -0.0676
      9 C9         -1.2186    1.7483    0.0173 C.ar      1 <0>        -0.1166
     10 C10        -0.0126    1.0758    0.0080 C.ar      1 <0>        -0.0702
     11 C11         1.1870    1.7881    0.0003 C.ar      1 <0>        -0.0970
     12 C12         1.1645    3.1868    0.0076 C.ar      1 <0>         0.1330
     13 O1          2.3268    3.8885   -0.0002 O.3       1 <0>        -0.4860
     14 C13         2.4776    1.0672   -0.0149 C.2       1 <0>         0.1858
     15 C14         2.7548   -0.0557    0.6938 C.2       1 <0>        -0.1888
     16 C15         4.1334   -0.4279    0.3804 C.ar      1 <0>        -0.0886
     17 C16         4.9712   -1.4703    0.7877 C.ar      1 <0>        -0.0339
     18 C17         6.2475   -1.5422    0.3064 C.ar      1 <0>        -0.2425
     19 C18         6.7200   -0.5881   -0.5847 C.ar      1 <0>        -0.1098
     20 C19         5.9116    0.4476   -1.0001 C.ar      1 <0>        -0.0774
     21 C20         4.6083    0.5415   -0.5234 C.ar      1 <0>         0.1369
     22 N1          3.5836    1.4356   -0.7454 N.pl3     1 <0>        -0.5657
     23 H1          3.6345    2.2087   -1.3290 H         1 <0>         0.4276
     24 C21         7.1502   -2.6659    0.7464 C.3       1 <0>         0.2546
     25 H2         -0.1899    9.1872    0.0489 H         1 <0>         0.1277
     26 H3         -1.5460    7.9359   -1.5783 H         1 <0>         0.1292
     27 H4         -1.4922    5.4764   -1.5978 H         1 <0>         0.1244
     28 H5          1.2841    5.5278    1.6656 H         1 <0>         0.1231
     29 H6          1.2258    7.9873    1.6641 H         1 <0>         0.1266
     30 H7         -2.1966    3.6468    0.0417 H         1 <0>         0.1405
     31 H8         -2.1439    1.1911    0.0187 H         1 <0>         0.1423
     32 H9          0.0021   -0.0041    0.0020 H         1 <0>         0.1365
     33 H10         2.6549    4.0962   -0.8858 H         1 <0>         0.3859
     34 H11         2.0840   -0.5770    1.3606 H         1 <0>         0.1654
     35 H12         4.6106   -2.2159    1.4809 H         1 <0>         0.1297
     36 H13         7.7316   -0.6586   -0.9564 H         1 <0>         0.1301
     37 H14         6.2888    1.1841   -1.6941 H         1 <0>         0.1469
     38 H15         7.0389   -3.5094    0.0650 H         1 <0>         0.2167
     39 H16         8.6746   -1.4247    1.3578 H         1 <0>         0.4520
     40 H17         9.1762   -2.9603    0.9626 H         1 <0>         0.4542
     41 H18         5.8108   -3.3430    2.1556 H         1 <0>         0.4724
     42 H19         7.3759   -3.8367    2.4247 H         1 <0>         0.4542
     43 N2          8.5476   -2.1999    0.7092 N.4       1 <0>        -0.6611
     44 H20         8.7722   -1.8820   -0.2409 H         1 <0>         0.4745
     45 N3          6.7892   -3.0621    2.1190 N.4       1 <0>        -0.6607
     46 H21         6.9325   -2.2643    2.7493 H         1 <0>         0.4542
@<TRIPOS>BOND
     1    1    6 ar
     2    1    2 ar
     3    1   25 1
     4    2    3 ar
     5    2   26 1
     6    3    4 ar
     7    3   27 1
     8    4    5 ar
     9    4    7 1
    10    5    6 ar
    11    5   28 1
    12    6   29 1
    13    7   12 ar
    14    7    8 ar
    15    8    9 ar
    16    8   30 1
    17    9   10 ar
    18    9   31 1
    19   10   11 ar
    20   10   32 1
    21   11   12 ar
    22   11   14 1
    23   12   13 1
    24   13   33 1
    25   14   22 1
    26   14   15 2
    27   15   16 1
    28   15   34 1
    29   16   21 ar
    30   16   17 ar
    31   17   18 ar
    32   17   35 1
    33   18   19 ar
    34   18   24 1
    35   19   20 ar
    36   19   36 1
    37   20   21 ar
    38   20   37 1
    39   21   22 1
    40   22   23 1
    41   24   38 1
    42   24   43 1
    43   24   45 1
    44   39   43 1
    45   40   43 1
    46   41   45 1
    47   42   45 1
    48   43   44 1
    49   45   46 1
@<TRIPOS>MOLECULE
ZINC03834111
   72    75     0     0     0
SMALL
USER_CHARGES

@<TRIPOS>ATOM
      1 C1          1.1211   -0.0482    1.5330 C.ar      1 <0>        -0.0839
      2 C2         -0.1769    0.4517    1.4452 C.ar      1 <0>        -0.1146
      3 C3         -0.4047    1.7766    1.2337 C.ar      1 <0>        -0.0906
      4 C4          0.6830    2.6551    1.0914 C.ar      1 <0>        -0.0797
      5 C5          0.4873    4.0286    0.8669 C.ar      1 <0>         0.0296
      6 C6          1.5647    4.8493    0.7336 C.ar      1 <0>        -0.6844
      7 C7          2.8628    4.3485    0.8157 C.ar      1 <0>        -0.0571
      8 C8          3.0906    3.0243    1.0321 C.ar      1 <0>        -0.1107
      9 C9          2.0029    2.1459    1.1753 C.ar      1 <0>        -0.0110
     10 C10         2.1986    0.7725    1.3997 C.ar      1 <0>        -0.1226
     11 S1          1.3148    6.5706    0.4523 S.o2      1 <0>         2.7016
     12 O1          2.4903    7.0530   -0.1839 O.2       1 <0>        -0.9635
     13 O2          0.0248    6.7042   -0.1285 O.2       1 <0>        -0.9435
     14 N1          1.2444    7.3039    1.9354 N.pl3     1 <0>        -1.1094
     15 C11         2.4240    7.3145    2.8041 C.3       1 <0>         0.1018
     16 C12         2.2319    8.3311    3.8998 C.2       1 <0>         0.5187
     17 O3          1.2102    8.9826    3.9502 O.2       1 <0>        -0.5143
     18 N2          3.1954    8.5163    4.8238 N.am      1 <0>        -0.7129
     19 C13         3.0086    9.5045    5.8890 C.3       1 <0>         0.1353
     20 H1          2.4521   10.3572    5.5000 H         1 <0>         0.1190
     21 C14         4.3743    9.9742    6.3942 C.3       1 <0>        -0.1070
     22 C15         5.0830   10.7281    5.2986 C.ar      1 <0>        -0.0111
     23 C16         5.9056   10.0536    4.4158 C.ar      1 <0>        -0.0855
     24 C17         6.5523   10.7445    3.4082 C.ar      1 <0>        -0.0896
     25 C18         6.3835   12.1113    3.2888 C.ar      1 <0>        -0.2202
     26 C19         5.5650   12.7866    4.1747 C.ar      1 <0>        -0.0883
     27 C20         4.9149   12.0951    5.1797 C.ar      1 <0>        -0.0869
     28 C21         7.0914   12.8650    2.1925 C.3       1 <0>         0.2483
     29 C22         2.2406    8.8795    7.0251 C.2       1 <0>         0.5006
     30 O4          2.2359    7.6746    7.1634 O.2       1 <0>        -0.5190
     31 N3          1.5589    9.6595    7.8873 N.am      1 <0>        -0.6042
     32 C23         1.4725   11.1109    7.6761 C.3       1 <0>         0.1045
     33 C24        -0.0086   11.5188    7.6869 C.3       1 <0>        -0.1373
     34 C25        -0.6559   11.0334    8.9859 C.3       1 <0>        -0.1233
     35 C26        -0.5766    9.5067    9.0579 C.3       1 <0>        -0.1376
     36 C27         0.8933    9.0753    9.0596 C.3       1 <0>         0.1087
     37 H2          1.2743   -1.1034    1.7050 H         1 <0>         0.1335
     38 H3         -1.0146   -0.2220    1.5502 H         1 <0>         0.1341
     39 H4         -1.4161    2.1505    1.1720 H         1 <0>         0.1368
     40 H5         -0.5129    4.4307    0.8010 H         1 <0>         0.1476
     41 H6          3.7004    5.0214    0.7063 H         1 <0>         0.1342
     42 H7          4.1020    2.6505    1.0939 H         1 <0>         0.1370
     43 H8          3.1987    0.3703    1.4657 H         1 <0>         0.1352
     44 H9          0.4221    7.7265    2.2290 H         1 <0>         0.4313
     45 H10         2.5597    6.3268    3.2445 H         1 <0>         0.1053
     46 H11         3.3050    7.5749    2.2173 H         1 <0>         0.1081
     47 H12         4.0126    7.9952    4.7835 H         1 <0>         0.4067
     48 H13         4.2378   10.6280    7.2556 H         1 <0>         0.1137
     49 H14         4.9711    9.1097    6.6851 H         1 <0>         0.1085
     50 H15         6.0405    8.9863    4.5114 H         1 <0>         0.1523
     51 H16         7.1915   10.2168    2.7158 H         1 <0>         0.1348
     52 H17         5.4331   13.8545    4.0814 H         1 <0>         0.1344
     53 H18         4.2754   12.6227    5.8719 H         1 <0>         0.1537
     54 H19         8.0642   13.2006    2.5520 H         1 <0>         0.2204
     55 H20         6.3876   11.6585    0.6801 H         1 <0>         0.4541
     56 H21         7.8049   12.4449    0.3076 H         1 <0>         0.4576
     57 H22         6.0908   14.6186    2.5952 H         1 <0>         0.4733
     58 H23         6.7398   14.5516    1.0654 H         1 <0>         0.4572
     59 H24         2.0028   11.6286    8.4754 H         1 <0>         0.0763
     60 H25         1.9166   11.3673    6.7143 H         1 <0>         0.0749
     61 H26        -0.5188   11.0682    6.8356 H         1 <0>         0.0710
     62 H27        -0.0862   12.6043    7.6253 H         1 <0>         0.0782
     63 H28        -1.7004   11.3443    9.0094 H         1 <0>         0.0726
     64 H29        -0.1294   11.4649    9.8372 H         1 <0>         0.0677
     65 H30        -1.0815    9.0751    8.1937 H         1 <0>         0.0683
     66 H31        -1.0586    9.1601    9.9721 H         1 <0>         0.0825
     67 H32         0.9550    7.9881    9.0109 H         1 <0>         0.0955
     68 H33         1.3773    9.4304    9.9694 H         1 <0>         0.0745
     69 N4          7.2889   11.9646    1.0429 N.4       1 <0>        -0.6623
     70 H34         7.8246   11.1427    1.3461 H         1 <0>         0.4753
     71 N5          6.2653   14.0175    1.7915 N.4       1 <0>        -0.6597
     72 H35         5.3678   13.6784    1.4257 H         1 <0>         0.4556
@<TRIPOS>BOND
     1    1   10 ar
     2    1    2 ar
     3    1   37 1
     4    2    3 ar
     5    2   38 1
     6    3    4 ar
     7    3   39 1
     8    4    9 ar
     9    4    5 ar
    10    5    6 ar
    11    5   40 1
    12    6    7 ar
    13    6   11 1
    14    7    8 ar
    15    7   41 1
    16    8    9 ar
    17    8   42 1
    18    9   10 ar
    19   10   43 1
    20   11   12 2
    21   11   13 2
    22   11   14 1
    23   14   15 1
    24   14   44 1
    25   15   16 1
    26   15   45 1
    27   15   46 1
    28   16   17 2
    29   16   18 am
    30   18   19 1
    31   18   47 1
    32   19   20 1
    33   19   21 1
    34   19   29 1
    35   21   22 1
    36   21   48 1
    37   21   49 1
    38   22   27 ar
    39   22   23 ar
    40   23   24 ar
    41   23   50 1
    42   24   25 ar
    43   24   51 1
    44   25   26 ar
    45   25   28 1
    46   26   27 ar
    47   26   52 1
    48   27   53 1
    49   28   54 1
    50   28   69 1
    51   28   71 1
    52   29   30 2
    53   29   31 am
    54   31   36 1
    55   31   32 1
    56   32   33 1
    57   32   59 1
    58   32   60 1
    59   33   34 1
    60   33   61 1
    61   33   62 1
    62   34   35 1
    63   34   63 1
    64   34   64 1
    65   35   36 1
    66   35   65 1
    67   35   66 1
    68   36   67 1
    69   36   68 1
    70   55   69 1
    71   56   69 1
    72   57   71 1
    73   58   71 1
    74   69   70 1
    75   71   72 1
@<TRIPOS>MOLECULE
ZINC03834112
   62    64     0     0     0
SMALL
USER_CHARGES

@<TRIPOS>ATOM
      1 C1         -4.5504   -1.9546   11.1118 C.3       1 <0>        -0.1315
      2 C2         -4.4096   -1.6672    9.6392 C.ar      1 <0>        -0.0131
      3 C3         -5.5253   -1.6778    8.8231 C.ar      1 <0>        -0.1359
      4 C4         -5.3962   -1.4142    7.4723 C.ar      1 <0>        -0.0019
      5 C5         -4.1514   -1.1391    6.9377 C.ar      1 <0>        -0.6906
      6 C6         -3.0350   -1.1333    7.7529 C.ar      1 <0>        -0.0215
      7 C7         -3.1648   -1.3926    9.1045 C.ar      1 <0>        -0.1396
      8 S1         -3.9867   -0.8031    5.2159 S.o2      1 <0>         2.6921
      9 O1         -5.0997   -1.4113    4.5751 O.2       1 <0>        -0.9478
     10 O2         -2.6444   -1.1133    4.8681 O.2       1 <0>        -0.9613
     11 N1         -4.1614    0.8317    5.0172 N.pl3     1 <0>        -1.1001
     12 C8         -3.1751    1.7491    5.5931 C.3       1 <0>         0.1401
     13 H1         -2.2227    1.2320    5.7099 H         1 <0>         0.1178
     14 C9         -2.9924    2.9506    4.6636 C.3       1 <0>        -0.1015
     15 C10        -2.4043    2.4887    3.3552 C.ar      1 <0>        -0.0099
     16 C11        -3.2368    2.1074    2.3196 C.ar      1 <0>        -0.0863
     17 C12        -2.6974    1.6842    1.1193 C.ar      1 <0>        -0.0907
     18 C13        -1.3255    1.6426    0.9545 C.ar      1 <0>        -0.2210
     19 C14        -0.4930    2.0188    1.9919 C.ar      1 <0>        -0.0885
     20 C15        -1.0325    2.4458    3.1909 C.ar      1 <0>        -0.0862
     21 C16        -0.7374    1.1812   -0.3541 C.3       1 <0>         0.2477
     22 C17        -3.6571    2.2243    6.9395 C.2       1 <0>         0.4925
     23 O3         -4.8453    2.2596    7.1804 O.2       1 <0>        -0.5066
     24 N2         -2.7679    2.6101    7.8760 N.am      1 <0>        -0.6044
     25 C18        -1.3331    2.6713    7.5657 C.3       1 <0>         0.0978
     26 C19        -0.8150    4.0724    7.9244 C.3       1 <0>        -0.1341
     27 C20        -1.1554    4.3774    9.3849 C.3       1 <0>        -0.1245
     28 C21        -2.6746    4.3640    9.5700 C.3       1 <0>        -0.1357
     29 C22        -3.2143    2.9716    9.2283 C.3       1 <0>         0.1097
     30 H2         -4.4419   -3.0253   11.2851 H         1 <0>         0.0854
     31 H3         -3.7781   -1.4174   11.6623 H         1 <0>         0.0756
     32 H4         -5.5330   -1.6290   11.4532 H         1 <0>         0.0775
     33 H5         -6.4979   -1.8923    9.2409 H         1 <0>         0.1374
     34 H6         -6.2678   -1.4228    6.8347 H         1 <0>         0.1396
     35 H7         -2.0619   -0.9227    7.3344 H         1 <0>         0.1316
     36 H8         -2.2931   -1.3841    9.7421 H         1 <0>         0.1339
     37 H9         -4.9168    1.1818    4.5195 H         1 <0>         0.4242
     38 H10        -2.3206    3.6715    5.1295 H         1 <0>         0.1112
     39 H11        -3.9594    3.4197    4.4819 H         1 <0>         0.1099
     40 H12        -4.3086    2.1406    2.4481 H         1 <0>         0.1532
     41 H13        -3.3477    1.3863    0.3101 H         1 <0>         0.1349
     42 H14         0.5788    1.9822    1.8646 H         1 <0>         0.1343
     43 H15        -0.3821    2.7433    4.0002 H         1 <0>         0.1541
     44 H16        -0.5833    0.1026   -0.3230 H         1 <0>         0.2211
     45 H17         0.9948    1.5134   -1.4158 H         1 <0>         0.4570
     46 H18         0.4334    2.8552   -0.6095 H         1 <0>         0.4524
     47 H19        -1.2869    1.2133   -2.3379 H         1 <0>         0.4567
     48 H20        -2.5717    1.1148   -1.2865 H         1 <0>         0.4740
     49 H21        -0.8005    1.9211    8.1502 H         1 <0>         0.0795
     50 H22        -1.1809    2.4850    6.5026 H         1 <0>         0.0753
     51 H23        -1.2861    4.8135    7.2786 H         1 <0>         0.0674
     52 H24         0.2659    4.1051    7.7883 H         1 <0>         0.0793
     53 H25        -0.7659    5.3600    9.6511 H         1 <0>         0.0722
     54 H26        -0.7046    3.6216   10.0281 H         1 <0>         0.0689
     55 H27        -3.1281    5.1023    8.9087 H         1 <0>         0.0676
     56 H28        -2.9171    4.6043   10.6051 H         1 <0>         0.0819
     57 H29        -4.3037    2.9835    9.2625 H         1 <0>         0.0959
     58 H30        -2.8320    2.2454    9.9456 H         1 <0>         0.0731
     59 N3          0.5620    1.8461   -0.5558 N.4       1 <0>        -0.6610
     60 H31         1.1789    1.6287    0.2356 H         1 <0>         0.4754
     61 N4         -1.6591    1.5380   -1.4470 N.4       1 <0>        -0.6591
     62 H32        -1.7644    2.5588   -1.4800 H         1 <0>         0.4546
@<TRIPOS>BOND
     1    1    2 1
     2    1   30 1
     3    1   31 1
     4    1   32 1
     5    2    7 ar
     6    2    3 ar
     7    3    4 ar
     8    3   33 1
     9    4    5 ar
    10    4   34 1
    11    5    6 ar
    12    5    8 1
    13    6    7 ar
    14    6   35 1
    15    7   36 1
    16    8    9 2
    17    8   10 2
    18    8   11 1
    19   11   12 1
    20   11   37 1
    21   12   13 1
    22   12   14 1
    23   12   22 1
    24   14   15 1
    25   14   38 1
    26   14   39 1
    27   15   20 ar
    28   15   16 ar
    29   16   17 ar
    30   16   40 1
    31   17   18 ar
    32   17   41 1
    33   18   19 ar
    34   18   21 1
    35   19   20 ar
    36   19   42 1
    37   20   43 1
    38   21   44 1
    39   21   59 1
    40   21   61 1
    41   22   23 2
    42   22   24 am
    43   24   29 1
    44   24   25 1
    45   25   26 1
    46   25   49 1
    47   25   50 1
    48   26   27 1
    49   26   51 1
    50   26   52 1
    51   27   28 1
    52   27   53 1
    53   27   54 1
    54   28   29 1
    55   28   55 1
    56   28   56 1
    57   29   57 1
    58   29   58 1
    59   45   59 1
    60   46   59 1
    61   47   61 1
    62   48   61 1
    63   59   60 1
    64   61   62 1
@<TRIPOS>MOLECULE
ZINC03834113
   46    49     0     0     0
SMALL
USER_CHARGES

@<TRIPOS>ATOM
      1 C1         -0.0186    0.9392    4.9067 C.ar      1 <0>        -0.1047
      2 C2          1.2826    0.5281    4.6804 C.ar      1 <0>        -0.1183
      3 C3          1.9001    0.8130    3.4794 C.ar      1 <0>        -0.1024
      4 C4          1.2099    1.5158    2.4936 C.ar      1 <0>        -0.0698
      5 C5         -0.0991    1.9321    2.7291 C.ar      1 <0>        -0.0865
      6 C6         -0.7085    1.6370    3.9317 C.ar      1 <0>        -0.1216
      7 C7          1.8682    1.8249    1.2007 C.ar      1 <0>        -0.0540
      8 C8          3.1357    2.4042    1.1831 C.ar      1 <0>        -0.0650
      9 C9          3.7488    2.6989   -0.0191 C.ar      1 <0>        -0.1164
     10 C10         3.1156    2.4179   -1.2137 C.ar      1 <0>        -0.0681
     11 C11         1.8488    1.8333   -1.2150 C.ar      1 <0>        -0.1016
     12 C12         1.2216    1.5319   -0.0014 C.ar      1 <0>         0.1349
     13 O1         -0.0110    0.9628    0.0073 O.3       1 <0>        -0.4861
     14 C13         1.1719    1.5328   -2.4944 C.2       1 <0>         0.1968
     15 C14         1.1804    2.3318   -3.5904 C.2       1 <0>        -0.1834
     16 C15         0.3936    1.6529   -4.6189 C.ar      1 <0>        -0.0788
     17 C16         0.0454    1.9676   -5.9357 C.ar      1 <0>        -0.0199
     18 C17        -0.7249    1.1021   -6.6592 C.ar      1 <0>        -0.2201
     19 C18        -1.1640   -0.0903   -6.0972 C.ar      1 <0>        -0.0499
     20 C19        -0.8318   -0.4207   -4.8002 C.ar      1 <0>        -0.0497
     21 C20        -0.0492    0.4461   -4.0448 C.ar      1 <0>         0.1389
     22 N1          0.4414    0.3969   -2.7581 N.pl3     1 <0>        -0.5579
     23 H1          0.2923   -0.3284   -2.1316 H         1 <0>         0.4310
     24 Cl1        -2.1410   -1.1748   -7.0369 Cl        1 <0>         0.0252
     25 C21        -1.1001    1.4424   -8.0785 C.3       1 <0>         0.2501
     26 H2         -0.4979    0.7141    5.8480 H         1 <0>         0.1280
     27 H3          1.8165   -0.0164    5.4451 H         1 <0>         0.1294
     28 H4          2.9161    0.4916    3.3038 H         1 <0>         0.1246
     29 H5         -0.6370    2.4812    1.9704 H         1 <0>         0.1231
     30 H6         -1.7244    1.9553    4.1136 H         1 <0>         0.1268
     31 H7          3.6384    2.6275    2.1125 H         1 <0>         0.1413
     32 H8          4.7291    3.1522   -0.0249 H         1 <0>         0.1433
     33 H9          3.6020    2.6516   -2.1492 H         1 <0>         0.1375
     34 H10         0.0021   -0.0041    0.0020 H         1 <0>         0.3867
     35 H11         1.6743    3.2876   -3.6852 H         1 <0>         0.1711
     36 H12         0.3836    2.8923   -6.3793 H         1 <0>         0.1439
     37 H13        -1.1787   -1.3496   -4.3721 H         1 <0>         0.1615
     38 H14        -0.3906    0.9778   -8.7632 H         1 <0>         0.2175
     39 H15        -3.1289    1.3587   -7.7386 H         1 <0>         0.4433
     40 H16        -2.7024    1.1013   -9.3253 H         1 <0>         0.4431
     41 H17        -0.1677    3.2765   -8.0063 H         1 <0>         0.4712
     42 H18        -1.3180    3.1543   -9.2012 H         1 <0>         0.4569
     43 N2         -2.4489    0.9179   -8.3559 N.4       1 <0>        -0.6827
     44 H19        -2.4568   -0.0959   -8.1936 H         1 <0>         0.4139
     45 N3         -1.0877    2.9071   -8.2402 N.4       1 <0>        -0.6577
     46 H20        -1.7852    3.3220   -7.6112 H         1 <0>         0.4547
@<TRIPOS>BOND
     1    1    6 ar
     2    1    2 ar
     3    1   26 1
     4    2    3 ar
     5    2   27 1
     6    3    4 ar
     7    3   28 1
     8    4    5 ar
     9    4    7 1
    10    5    6 ar
    11    5   29 1
    12    6   30 1
    13    7   12 ar
    14    7    8 ar
    15    8    9 ar
    16    8   31 1
    17    9   10 ar
    18    9   32 1
    19   10   11 ar
    20   10   33 1
    21   11   12 ar
    22   11   14 1
    23   12   13 1
    24   13   34 1
    25   14   22 1
    26   14   15 2
    27   15   16 1
    28   15   35 1
    29   16   21 ar
    30   16   17 ar
    31   17   18 ar
    32   17   36 1
    33   18   19 ar
    34   18   25 1
    35   19   20 ar
    36   19   24 1
    37   20   21 ar
    38   20   37 1
    39   21   22 1
    40   22   23 1
    41   25   38 1
    42   25   43 1
    43   25   45 1
    44   39   43 1
    45   40   43 1
    46   41   45 1
    47   42   45 1
    48   43   44 1
    49   45   46 1
@<TRIPOS>MOLECULE
ZINC03834114
   55    58     0     0     0
SMALL
USER_CHARGES

@<TRIPOS>ATOM
      1 C1         -8.8926   -0.1905    1.1134 C.ar      1 <0>        -0.1193
      2 C2         -9.1484   -1.4336    0.5654 C.ar      1 <0>        -0.1157
      3 C3         -8.2893   -2.4880    0.8126 C.ar      1 <0>        -0.1181
      4 C4         -7.1740   -2.2991    1.6071 C.ar      1 <0>        -0.0884
      5 C5         -6.9207   -1.0573    2.1590 C.ar      1 <0>        -0.1184
      6 C6         -7.7774   -0.0018    1.9082 C.ar      1 <0>        -0.1163
      7 C7         -6.2374   -3.4486    1.8766 C.3       1 <0>        -0.0744
      8 C8         -5.1496   -3.4830    0.8012 C.3       1 <0>        -0.0822
      9 C9         -4.2729   -4.7212    1.0022 C.3       1 <0>        -0.1291
     10 C10        -3.2064   -4.7707   -0.0963 C.3       1 <0>         0.0854
     11 N1         -2.4669   -3.5011   -0.0949 N.am      1 <0>        -0.6000
     12 C11        -3.2217   -2.2438   -0.1862 C.3       1 <0>         0.1096
     13 C12        -4.2877   -2.2229    0.9078 C.3       1 <0>        -0.1345
     14 C13        -1.1221   -3.4898   -0.0060 C.2       1 <0>         0.5709
     15 O1         -0.5296   -2.4347    0.1188 O.2       1 <0>        -0.4997
     16 C14        -0.3710   -4.7529   -0.0598 C.2       1 <0>         0.0693
     17 C15         0.8664   -4.9564    0.4631 C.2       1 <0>        -0.1149
     18 C16         1.2305   -6.2990    0.1992 C.ar      1 <0>        -0.0996
     19 C17         2.3679   -7.0629    0.4919 C.ar      1 <0>        -0.0211
     20 C18         2.4296   -8.3672    0.0965 C.ar      1 <0>        -0.2375
     21 C19         1.3736   -8.9477   -0.5952 C.ar      1 <0>        -0.1034
     22 C20         0.2453   -8.2180   -0.8947 C.ar      1 <0>        -0.0742
     23 C21         0.1586   -6.8850   -0.5019 C.ar      1 <0>         0.1346
     24 N2         -0.8111   -5.9219   -0.6499 N.pl3     1 <0>        -0.5599
     25 H1         -1.6643   -6.0432   -1.0953 H         1 <0>         0.4375
     26 C22         3.6543   -9.1862    0.4135 C.3       1 <0>         0.2555
     27 H2         -9.5637    0.6333    0.9202 H         1 <0>         0.1240
     28 H3        -10.0196   -1.5811   -0.0556 H         1 <0>         0.1235
     29 H4         -8.4894   -3.4593    0.3848 H         1 <0>         0.1193
     30 H5         -6.0517   -0.9108    2.7832 H         1 <0>         0.1196
     31 H6         -7.5774    0.9695    2.3361 H         1 <0>         0.1236
     32 H7         -6.7960   -4.3844    1.8583 H         1 <0>         0.0751
     33 H8         -5.7763   -3.3197    2.8558 H         1 <0>         0.0732
     34 H9         -5.6141   -3.5230   -0.1841 H         1 <0>         0.0787
     35 H10        -4.8913   -5.6173    0.9495 H         1 <0>         0.0841
     36 H11        -3.7887   -4.6697    1.9774 H         1 <0>         0.0727
     37 H12        -3.6857   -4.9133   -1.0648 H         1 <0>         0.0823
     38 H13        -2.5187   -5.5943    0.0959 H         1 <0>         0.0789
     39 H14        -2.5445   -1.4005   -0.0508 H         1 <0>         0.1014
     40 H15        -3.7023   -2.1762   -1.1622 H         1 <0>         0.0788
     41 H16        -4.9166   -1.3408    0.7878 H         1 <0>         0.0912
     42 H17        -3.8033   -2.1949    1.8838 H         1 <0>         0.0704
     43 H18         1.4648   -4.2253    0.9864 H         1 <0>         0.1725
     44 H19         3.1939   -6.6203    1.0288 H         1 <0>         0.1331
     45 H20         1.4385   -9.9816   -0.9006 H         1 <0>         0.1337
     46 H21        -0.5721   -8.6794   -1.4289 H         1 <0>         0.1498
     47 H22         3.5255   -9.6735    1.3799 H         1 <0>         0.2178
     48 H23         3.0774  -10.8605   -0.6364 H         1 <0>         0.4738
     49 H24         3.9665   -9.7784   -1.5334 H         1 <0>         0.4530
     50 H25         4.6982   -7.5602    1.1241 H         1 <0>         0.4728
     51 H26         5.6663   -8.8345    0.6717 H         1 <0>         0.4548
     52 N3          3.8661  -10.2160   -0.6190 N.4       1 <0>        -0.6616
     53 H27         4.7222  -10.7400   -0.4025 H         1 <0>         0.4564
     54 N4          4.8315   -8.3001    0.4368 N.4       1 <0>        -0.6639
     55 H28         4.9543   -7.8775   -0.4909 H         1 <0>         0.4549
@<TRIPOS>BOND
     1    1    6 ar
     2    1    2 ar
     3    1   27 1
     4    2    3 ar
     5    2   28 1
     6    3    4 ar
     7    3   29 1
     8    4    5 ar
     9    4    7 1
    10    5    6 ar
    11    5   30 1
    12    6   31 1
    13    7    8 1
    14    7   32 1
    15    7   33 1
    16    8   13 1
    17    8    9 1
    18    8   34 1
    19    9   10 1
    20    9   35 1
    21    9   36 1
    22   10   11 1
    23   10   37 1
    24   10   38 1
    25   11   12 1
    26   11   14 am
    27   12   13 1
    28   12   39 1
    29   12   40 1
    30   13   41 1
    31   13   42 1
    32   14   15 2
    33   14   16 1
    34   16   24 1
    35   16   17 2
    36   17   18 1
    37   17   43 1
    38   18   23 ar
    39   18   19 ar
    40   19   20 ar
    41   19   44 1
    42   20   21 ar
    43   20   26 1
    44   21   22 ar
    45   21   45 1
    46   22   23 ar
    47   22   46 1
    48   23   24 1
    49   24   25 1
    50   26   47 1
    51   26   52 1
    52   26   54 1
    53   48   52 1
    54   49   52 1
    55   50   54 1
    56   51   54 1
    57   52   53 1
    58   54   55 1
@<TRIPOS>MOLECULE
ZINC03834115
   58    62     0     0     0
SMALL
USER_CHARGES

@<TRIPOS>ATOM
      1 C1         -4.5802    0.1476    3.8978 C.ar      1 <0>        -0.0613
      2 C2         -5.0351    0.4335    5.1710 C.ar      1 <0>        -0.1500
      3 C3         -5.8155    1.5559    5.3910 C.ar      1 <0>         0.1305
      4 C4         -6.1347    2.3935    4.3358 C.ar      1 <0>        -0.1584
      5 C5         -5.6742    2.1084    3.0643 C.ar      1 <0>        -0.0707
      6 C6         -4.8952    0.9875    2.8459 C.ar      1 <0>        -0.1564
      7 C7         -4.3941    0.6775    1.4588 C.3       1 <0>         0.1515
      8 N1         -3.0936    1.3202    1.2544 N.am      1 <0>        -0.5865
      9 C8         -1.9349    0.7178    1.5456 C.2       1 <0>         0.5176
     10 O1         -1.8214   -0.3987    2.0039 O.2       1 <0>        -0.4231
     11 C9         -0.7887    1.6475    1.2136 C.3       1 <0>        -0.1275
     12 H1         -0.1430    1.8521    2.0675 H         1 <0>         0.1854
     13 C10        -0.0127    1.0858    0.0080 C.3       1 <0>         0.0350
     14 H2          0.0021   -0.0041    0.0020 H         1 <0>         0.1795
     15 C11         1.4069    1.6843   -0.0023 C.3       1 <0>        -0.1434
     16 C12         1.6711    2.0871   -1.4667 C.3       1 <0>        -0.1512
     17 C13         0.3948    1.6814   -2.2322 C.3       1 <0>        -0.0064
     18 C14        -1.0380    3.0332   -0.8260 C.3       1 <0>         0.0787
     19 H3         -0.1732    3.6899   -0.9207 H         1 <0>         0.1793
     20 C15        -1.4838    2.9457    0.6464 C.3       1 <0>        -0.1355
     21 H4         -1.2276    3.8401    1.2143 H         1 <0>         0.1851
     22 C16        -2.9596    2.6229    0.7066 C.2       1 <0>         0.5347
     23 O2         -3.8539    3.3640    0.3596 O.2       1 <0>        -0.4367
     24 C17        -2.1706    3.5316   -1.6862 C.ar      1 <0>        -0.0683
     25 C18        -3.1948    2.6753   -2.0448 C.ar      1 <0>        -0.0862
     26 C19        -4.2362    3.1338   -2.8297 C.ar      1 <0>        -0.0745
     27 C20        -4.2483    4.4460   -3.2644 C.ar      1 <0>        -0.1829
     28 C21        -3.2212    5.3008   -2.9105 C.ar      1 <0>        -0.0784
     29 C22        -2.1825    4.8437   -2.1212 C.ar      1 <0>        -0.0468
     30 C23        -5.3809    4.9444   -4.1244 C.3       1 <0>         0.2438
     31 F1         -6.2647    1.8338    6.6345 F         1 <0>        -0.1238
     32 H5         -3.9749   -0.7301    3.7252 H         1 <0>         0.1394
     33 H6         -4.7855   -0.2205    5.9934 H         1 <0>         0.1479
     34 H7         -6.7430    3.2695    4.5062 H         1 <0>         0.1420
     35 H8         -5.9234    2.7614    2.2409 H         1 <0>         0.1264
     36 H9         -5.1050    1.0537    0.7232 H         1 <0>         0.1000
     37 H10        -4.2884   -0.4012    1.3434 H         1 <0>         0.1134
     38 H11         1.4516    2.5608    0.6441 H         1 <0>         0.1100
     39 H12         2.1332    0.9387    0.3209 H         1 <0>         0.1283
     40 H13         1.8306    3.1628   -1.5404 H         1 <0>         0.1039
     41 H14         2.5352    1.5495   -1.8570 H         1 <0>         0.1253
     42 H15         0.1618    2.4208   -2.9984 H         1 <0>         0.1399
     43 H16         0.5205    0.6969   -2.6829 H         1 <0>         0.1504
     44 H17        -3.1832    1.6490   -1.7086 H         1 <0>         0.1385
     45 H18        -5.0384    2.4658   -3.1065 H         1 <0>         0.1441
     46 H19        -3.2305    6.3259   -3.2503 H         1 <0>         0.1483
     47 H20        -1.3800    5.5115   -1.8447 H         1 <0>         0.1660
     48 H21        -5.1347    4.7898   -5.1749 H         1 <0>         0.2269
     49 H22        -6.8570    4.3335   -2.8258 H         1 <0>         0.4554
     50 H23        -7.3664    4.4766   -4.4024 H         1 <0>         0.4640
     51 H24        -4.7413    6.8992   -4.0338 H         1 <0>         0.4747
     52 H25        -6.3453    6.7355   -4.4418 H         1 <0>         0.4636
     53 N2         -0.6282    1.6630   -1.1694 N.4       1 <0>        -0.3922
     54 H26        -1.4418    1.1118   -1.4667 H         1 <0>         0.4196
     55 N3         -6.5996    4.1824   -3.7998 N.4       1 <0>        -0.6624
     56 H27        -6.4218    3.1821   -3.9480 H         1 <0>         0.4750
     57 N4         -5.5965    6.3764   -3.8518 N.4       1 <0>        -0.6596
     58 H28        -5.8593    6.4966   -2.8666 H         1 <0>         0.4576
@<TRIPOS>BOND
     1    1    6 ar
     2    1    2 ar
     3    1   32 1
     4    2    3 ar
     5    2   33 1
     6    3    4 ar
     7    3   31 1
     8    4    5 ar
     9    4   34 1
    10    5    6 ar
    11    5   35 1
    12    6    7 1
    13    7    8 1
    14    7   36 1
    15    7   37 1
    16    8   22 am
    17    8    9 am
    18    9   10 2
    19    9   11 1
    20   11   12 1
    21   11   20 1
    22   11   13 1
    23   13   14 1
    24   13   15 1
    25   13   53 1
    26   15   16 1
    27   15   38 1
    28   15   39 1
    29   16   17 1
    30   16   40 1
    31   16   41 1
    32   17   42 1
    33   17   43 1
    34   17   53 1
    35   18   19 1
    36   18   20 1
    37   18   24 1
    38   18   53 1
    39   20   21 1
    40   20   22 1
    41   22   23 2
    42   24   29 ar
    43   24   25 ar
    44   25   26 ar
    45   25   44 1
    46   26   27 ar
    47   26   45 1
    48   27   28 ar
    49   27   30 1
    50   28   29 ar
    51   28   46 1
    52   29   47 1
    53   30   48 1
    54   30   55 1
    55   30   57 1
    56   49   55 1
    57   50   55 1
    58   51   57 1
    59   52   57 1
    60   53   54 1
    61   55   56 1
    62   57   58 1
@<TRIPOS>MOLECULE
ZINC03834116
   75    78     0     0     0
SMALL
USER_CHARGES

@<TRIPOS>ATOM
      1 H1         -0.1304   -2.7733   11.5893 H         1 <0>         0.4452
      2 C1          0.7749   -1.0041   11.1484 C.cat     1 <0>         0.5985
      3 C2          1.6733   -0.3509   10.1691 C.ar      1 <0>        -0.1493
      4 C3          2.0217    0.9906   10.3245 C.ar      1 <0>        -0.0508
      5 C4          2.8596    1.5934    9.4090 C.ar      1 <0>        -0.0999
      6 C5          3.3585    0.8682    8.3415 C.ar      1 <0>        -0.0422
      7 C6          3.0119   -0.4609    8.1787 C.ar      1 <0>        -0.0702
      8 C7          2.1747   -1.0749    9.0879 C.ar      1 <0>        -0.0613
      9 C8          3.5548   -1.2417    7.0097 C.3       1 <0>        -0.0962
     10 C9          2.5958   -1.1177    5.8240 C.3       1 <0>         0.1424
     11 H2          2.4393   -0.0641    5.5921 H         1 <0>         0.1177
     12 C10         3.1867   -1.8135    4.6250 C.2       1 <0>         0.5067
     13 O1          2.7652   -2.8988    4.2851 O.2       1 <0>        -0.5072
     14 N1          4.1834   -1.2299    3.9304 N.am      1 <0>        -0.6061
     15 C11         4.6797   -1.8323    2.6852 C.3       1 <0>         0.0965
     16 C12         4.5870   -0.7806    1.5666 C.3       1 <0>         0.1055
     17 N2          5.2011    0.4663    2.0441 N.pl3     1 <0>        -0.9998
     18 C13         4.7085    1.0657    3.2923 C.3       1 <0>         0.1016
     19 C14         4.7974    0.0170    4.4080 C.3       1 <0>         0.0788
     20 S1          6.4257    1.1835    1.1907 S.o2      1 <0>         2.6057
     21 O2          6.2300    0.7583   -0.1510 O.2       1 <0>        -0.9463
     22 O3          6.3482    2.5604    1.5330 O.2       1 <0>        -0.9486
     23 C15         7.9475    0.4579    1.8604 C.3       1 <0>        -0.6727
     24 N3          1.3135   -1.7382    6.1661 N.pl3     1 <0>        -1.0996
     25 S2         -0.0671   -0.8240    6.1954 S.o2      1 <0>         2.6901
     26 O4          0.2255    0.3286    6.9731 O.2       1 <0>        -0.9509
     27 O5         -1.1328   -1.7081    6.5146 O.2       1 <0>        -0.9504
     28 C16        -0.3547   -0.2619    4.5504 C.ar      1 <0>        -0.6919
     29 C17        -0.3136    1.0687    4.2650 C.ar      1 <0>         0.0178
     30 C18        -0.5384    1.5315    2.9706 C.ar      1 <0>        -0.1636
     31 C19        -0.8053    0.6658    1.9535 C.ar      1 <0>        -0.0055
     32 C20        -0.8494   -0.7133    2.2088 C.ar      1 <0>        -0.0592
     33 C21        -0.6271   -1.1847    3.5261 C.ar      1 <0>         0.0407
     34 C22        -0.6777   -2.5655    3.7846 C.ar      1 <0>        -0.1377
     35 C23        -0.9444   -3.4370    2.7733 C.ar      1 <0>        -0.0638
     36 C24        -1.1703   -2.9857    1.4761 C.ar      1 <0>        -0.1551
     37 C25        -1.1296   -1.6398    1.1810 C.ar      1 <0>         0.1247
     38 N4         -1.3571   -1.1983   -0.1206 N.pl3     1 <0>        -0.5152
     39 C26        -2.6935   -1.5940   -0.5846 C.3       1 <0>         0.0245
     40 C27        -0.3161   -1.6903   -1.0329 C.3       1 <0>         0.0266
     41 N5          0.2809   -0.2862   12.2157 N.pl3     1 <0>        -0.7793
     42 H3          1.6368    1.5563   11.1602 H         1 <0>         0.1373
     43 H4          3.1299    2.6322    9.5282 H         1 <0>         0.1498
     44 H5          4.0176    1.3433    7.6298 H         1 <0>         0.1451
     45 H6          1.9081   -2.1138    8.9620 H         1 <0>         0.1308
     46 H7          3.6542   -2.2909    7.2883 H         1 <0>         0.1013
     47 H8          4.5311   -0.8460    6.7302 H         1 <0>         0.1066
     48 H9          5.7170   -2.1405    2.8161 H         1 <0>         0.0789
     49 H10         4.0682   -2.6971    2.4280 H         1 <0>         0.1088
     50 H11         3.5416   -0.6009    1.3159 H         1 <0>         0.0810
     51 H12         5.1191   -1.1358    0.6840 H         1 <0>         0.1084
     52 H13         3.6717    1.3768    3.1644 H         1 <0>         0.0825
     53 H14         5.3201    1.9295    3.5527 H         1 <0>         0.1102
     54 H15         4.2634    0.3738    5.2888 H         1 <0>         0.0958
     55 H16         5.8428   -0.1627    4.6587 H         1 <0>         0.0872
     56 H17         7.9311   -0.6218    1.7120 H         1 <0>         0.1280
     57 H18         8.8095    0.8824    1.3457 H         1 <0>         0.1323
     58 H19         8.0163    0.6773    2.9258 H         1 <0>         0.1269
     59 H20         1.2731   -2.6845    6.3754 H         1 <0>         0.4257
     60 H21        -0.1040    1.7757    5.0540 H         1 <0>         0.1437
     61 H22        -0.5002    2.5921    2.7704 H         1 <0>         0.1383
     62 H23        -0.9780    1.0386    0.9548 H         1 <0>         0.1479
     63 H24        -0.5048   -2.9347    4.7846 H         1 <0>         0.1268
     64 H25        -0.9809   -4.4962    2.9809 H         1 <0>         0.1311
     65 H26        -1.3801   -3.6981    0.6919 H         1 <0>         0.1281
     66 H27        -3.4490   -1.1583    0.0692 H         1 <0>         0.0723
     67 H28        -2.7784   -2.6805   -0.5642 H         1 <0>         0.0360
     68 H29        -2.8450   -1.2368   -1.6032 H         1 <0>         0.0804
     69 H30        -0.4781   -1.2742   -2.0272 H         1 <0>         0.0804
     70 H31         0.6633   -1.3835   -0.6659 H         1 <0>         0.0706
     71 H32        -0.3610   -2.7782   -1.0826 H         1 <0>         0.0356
     72 H33         0.5218    0.6470   12.3255 H         1 <0>         0.4433
     73 H34        -0.3076   -0.7139   12.8572 H         1 <0>         0.4315
     74 N6          0.4843   -2.2793   10.9423 N.pl3     1 <0>        -0.7612
     75 H35         0.8777   -2.7709   10.1313 H         1 <0>         0.4583
@<TRIPOS>BOND
     1    1   74 1
     2    2    3 1
     3    2   41 1
     4    2   74 2
     5    3    8 ar
     6    3    4 ar
     7    4    5 ar
     8    4   42 1
     9    5    6 ar
    10    5   43 1
    11    6    7 ar
    12    6   44 1
    13    7    8 ar
    14    7    9 1
    15    8   45 1
    16    9   10 1
    17    9   46 1
    18    9   47 1
    19   10   11 1
    20   10   12 1
    21   10   24 1
    22   12   13 2
    23   12   14 am
    24   14   19 1
    25   14   15 1
    26   15   16 1
    27   15   48 1
    28   15   49 1
    29   16   17 1
    30   16   50 1
    31   16   51 1
    32   17   18 1
    33   17   20 1
    34   18   19 1
    35   18   52 1
    36   18   53 1
    37   19   54 1
    38   19   55 1
    39   20   21 2
    40   20   22 2
    41   20   23 1
    42   23   56 1
    43   23   57 1
    44   23   58 1
    45   24   25 1
    46   24   59 1
    47   25   26 2
    48   25   27 2
    49   25   28 1
    50   28   33 ar
    51   28   29 ar
    52   29   30 ar
    53   29   60 1
    54   30   31 ar
    55   30   61 1
    56   31   32 ar
    57   31   62 1
    58   32   37 ar
    59   32   33 ar
    60   33   34 ar
    61   34   35 ar
    62   34   63 1
    63   35   36 ar
    64   35   64 1
    65   36   37 ar
    66   36   65 1
    67   37   38 1
    68   38   39 1
    69   38   40 1
    70   39   66 1
    71   39   67 1
    72   39   68 1
    73   40   69 1
    74   40   70 1
    75   40   71 1
    76   41   72 1
    77   41   73 1
    78   74   75 1
@<TRIPOS>MOLECULE
ZINC03834117
   73    75     0     0     0
SMALL
USER_CHARGES

@<TRIPOS>ATOM
      1 H1          4.5191    2.4725    0.7082 H         1 <0>         0.4421
      2 C1          2.5256    2.7270    0.3831 C.cat     1 <0>         0.6001
      3 C2          1.2652    1.9862    0.1478 C.ar      1 <0>        -0.1444
      4 C3          0.0681    2.6797   -0.0301 C.ar      1 <0>        -0.0396
      5 C4         -1.1030    1.9838   -0.2490 C.ar      1 <0>        -0.0932
      6 C5         -1.0916    0.6009   -0.2923 C.ar      1 <0>        -0.0287
      7 C6          0.0924   -0.0924   -0.1170 C.ar      1 <0>        -0.0622
      8 C7          1.2703    0.5925    0.1026 C.ar      1 <0>        -0.0483
      9 C8          0.0963   -1.5985   -0.1666 C.3       1 <0>        -0.1092
     10 C9          0.3358   -2.0608   -1.6053 C.3       1 <0>         0.1454
     11 H2          1.3125   -1.7125   -1.9410 H         1 <0>         0.1088
     12 C10         0.2922   -3.5661   -1.6630 C.2       1 <0>         0.5138
     13 O1         -0.6276   -4.1252   -2.2217 O.2       1 <0>        -0.5089
     14 N1          1.2755   -4.2911   -1.0937 N.am      1 <0>        -0.6065
     15 C11         1.3080   -5.7529   -1.2407 C.3       1 <0>         0.0949
     16 C12         2.6733   -6.1517   -1.8261 C.3       1 <0>         0.1046
     17 N2          3.7287   -5.4952   -1.0420 N.pl3     1 <0>        -1.0005
     18 C13         3.6931   -4.0337   -0.8903 C.3       1 <0>         0.1021
     19 C14         2.3309   -3.6344   -0.3096 C.3       1 <0>         0.0770
     20 S1          4.9368   -6.3858   -0.3425 S.o2      1 <0>         2.6060
     21 O2          5.0367   -7.5546   -1.1447 O.2       1 <0>        -0.9445
     22 O3          6.0323   -5.4874   -0.2319 O.2       1 <0>        -0.9515
     23 C15         4.3084   -6.8109    1.3052 C.3       1 <0>        -0.6724
     24 N3         -0.7053   -1.5084   -2.4754 N.pl3     1 <0>        -1.0999
     25 S2         -0.4323   -0.0995   -3.3016 S.o2      1 <0>         2.6875
     26 O4         -1.6022    0.1560   -4.0666 O.2       1 <0>        -0.9460
     27 O5          0.0794    0.8319   -2.3582 O.2       1 <0>        -0.9492
     28 C16         0.8638   -0.4135   -4.4531 C.ar      1 <0>        -0.6887
     29 C17         2.1802   -0.2064   -4.0855 C.ar      1 <0>        -0.0264
     30 C18         3.1974   -0.4570   -4.9875 C.ar      1 <0>        -0.1433
     31 C19         2.8975   -0.9056   -6.2602 C.ar      1 <0>        -0.0026
     32 C20         1.5808   -1.1081   -6.6294 C.ar      1 <0>        -0.1307
     33 C21         0.5640   -0.8616   -5.7260 C.ar      1 <0>        -0.0112
     34 C22         4.0061   -1.1742   -7.2451 C.3       1 <0>        -0.0409
     35 C23         3.8249   -0.2801   -8.4733 C.3       1 <0>        -0.1427
     36 C24         5.3551   -0.8726   -6.5892 C.3       1 <0>        -0.1468
     37 C25         3.9638   -2.6426   -7.6725 C.3       1 <0>        -0.1420
     38 N4          2.5174    4.1041    0.4271 N.pl3     1 <0>        -0.7830
     39 H3          0.0580    3.7591    0.0031 H         1 <0>         0.1298
     40 H4         -2.0297    2.5199   -0.3913 H         1 <0>         0.1412
     41 H5         -2.0108    0.0606   -0.4639 H         1 <0>         0.1351
     42 H6          2.1941    0.0501    0.2397 H         1 <0>         0.1254
     43 H7          0.8901   -1.9811    0.4750 H         1 <0>         0.1030
     44 H8         -0.8654   -1.9760    0.1811 H         1 <0>         0.1029
     45 H9          1.1739   -6.2217   -0.2658 H         1 <0>         0.0804
     46 H10         0.5124   -6.0707   -1.9147 H         1 <0>         0.1114
     47 H11         2.7362   -5.8304   -2.8657 H         1 <0>         0.0829
     48 H12         2.7950   -7.2335   -1.7696 H         1 <0>         0.1103
     49 H13         3.8287   -3.5616   -1.8633 H         1 <0>         0.0815
     50 H14         4.4866   -3.7141   -0.2149 H         1 <0>         0.1076
     51 H15         2.2111   -2.5527   -0.3686 H         1 <0>         0.0962
     52 H16         2.2661   -3.9535    0.7306 H         1 <0>         0.0871
     53 H17         3.3886   -7.3871    1.2057 H         1 <0>         0.1294
     54 H18         5.0531   -7.4040    1.8362 H         1 <0>         0.1327
     55 H19         4.1062   -5.8970    1.8638 H         1 <0>         0.1261
     56 H20        -1.5545   -1.9680   -2.5676 H         1 <0>         0.4324
     57 H21         2.4142    0.1480   -3.0925 H         1 <0>         0.1318
     58 H22         4.2260   -0.2991   -4.6989 H         1 <0>         0.1370
     59 H23         1.3467   -1.4585   -7.6237 H         1 <0>         0.1359
     60 H24        -0.4647   -1.0195   -6.0146 H         1 <0>         0.1405
     61 H25         3.8551    0.7661   -8.1688 H         1 <0>         0.0580
     62 H26         4.6267   -0.4744   -9.1857 H         1 <0>         0.0675
     63 H27         2.8639   -0.4949   -8.9405 H         1 <0>         0.0609
     64 H28         5.4842   -1.5096   -5.7142 H         1 <0>         0.0597
     65 H29         6.1570   -1.0669   -7.3016 H         1 <0>         0.0664
     66 H30         5.3852    0.1735   -6.2847 H         1 <0>         0.0590
     67 H31         3.0027   -2.8575   -8.1397 H         1 <0>         0.0606
     68 H32         4.7656   -2.8369   -8.3849 H         1 <0>         0.0674
     69 H33         4.0929   -3.2796   -6.7974 H         1 <0>         0.0578
     70 H34         1.6860    4.5883    0.3040 H         1 <0>         0.4429
     71 H35         3.3430    4.5893    0.5813 H         1 <0>         0.4293
     72 N5          3.6258    2.0081    0.5434 N.pl3     1 <0>        -0.7662
     73 H36         3.5800    0.9832    0.5018 H         1 <0>         0.4569
@<TRIPOS>BOND
     1    1   72 1
     2    2    3 1
     3    2   38 1
     4    2   72 2
     5    3    8 ar
     6    3    4 ar
     7    4    5 ar
     8    4   39 1
     9    5    6 ar
    10    5   40 1
    11    6    7 ar
    12    6   41 1
    13    7    8 ar
    14    7    9 1
    15    8   42 1
    16    9   10 1
    17    9   43 1
    18    9   44 1
    19   10   11 1
    20   10   12 1
    21   10   24 1
    22   12   13 2
    23   12   14 am
    24   14   19 1
    25   14   15 1
    26   15   16 1
    27   15   45 1
    28   15   46 1
    29   16   17 1
    30   16   47 1
    31   16   48 1
    32   17   18 1
    33   17   20 1
    34   18   19 1
    35   18   49 1
    36   18   50 1
    37   19   51 1
    38   19   52 1
    39   20   21 2
    40   20   22 2
    41   20   23 1
    42   23   53 1
    43   23   54 1
    44   23   55 1
    45   24   25 1
    46   24   56 1
    47   25   26 2
    48   25   27 2
    49   25   28 1
    50   28   33 ar
    51   28   29 ar
    52   29   30 ar
    53   29   57 1
    54   30   31 ar
    55   30   58 1
    56   31   32 ar
    57   31   34 1
    58   32   33 ar
    59   32   59 1
    60   33   60 1
    61   34   35 1
    62   34   36 1
    63   34   37 1
    64   35   61 1
    65   35   62 1
    66   35   63 1
    67   36   64 1
    68   36   65 1
    69   36   66 1
    70   37   67 1
    71   37   68 1
    72   37   69 1
    73   38   70 1
    74   38   71 1
    75   72   73 1
@<TRIPOS>MOLECULE
ZINC03834118
   71    73     0     0     0
SMALL
USER_CHARGES

@<TRIPOS>ATOM
      1 H1         -2.0280    3.2238   -0.3360 H         1 <0>         0.4458
      2 C1         -0.3889    2.0276   -0.1730 C.cat     1 <0>         0.5989
      3 C2          0.0316    0.6118   -0.0637 C.ar      1 <0>        -0.1533
      4 C3          1.3857    0.2881    0.0190 C.ar      1 <0>        -0.0556
      5 C4          1.7711   -1.0324    0.1274 C.ar      1 <0>        -0.1039
      6 C5          0.8178   -2.0351    0.1412 C.ar      1 <0>        -0.0464
      7 C6         -0.5262   -1.7207    0.0534 C.ar      1 <0>        -0.0721
      8 C7         -0.9244   -0.4032   -0.0487 C.ar      1 <0>        -0.0604
      9 C8         -1.5580   -2.8189    0.0697 C.3       1 <0>        -0.0872
     10 C9         -1.8347   -3.2801   -1.3627 C.3       1 <0>         0.1357
     11 H2         -0.8972   -3.5657   -1.8398 H         1 <0>         0.1200
     12 C10        -2.7670   -4.4639   -1.3381 C.2       1 <0>         0.4953
     13 O1         -3.9542   -4.3049   -1.5285 O.2       1 <0>        -0.5120
     14 N1         -2.2815   -5.6992   -1.1045 N.am      1 <0>        -0.6040
     15 C11        -0.8646   -5.8956   -0.7687 C.3       1 <0>         0.0970
     16 C12        -0.2638   -6.9222   -1.7273 C.3       1 <0>        -0.1350
     17 C13        -1.1019   -8.2022   -1.6912 C.3       1 <0>        -0.0917
     18 C14        -2.5299   -7.8920   -2.1460 C.3       1 <0>        -0.1321
     19 C15        -3.1576   -6.8758   -1.1867 C.3       1 <0>         0.1117
     20 C16        -0.4837   -9.2428   -2.6270 C.3       1 <0>        -0.1494
     21 N2         -2.4532   -2.1869   -2.1168 N.pl3     1 <0>        -1.0972
     22 S1         -2.1079   -1.9909   -3.7245 S.o2      1 <0>         2.6880
     23 O2         -2.8716   -0.8790   -4.1714 O.2       1 <0>        -0.9539
     24 O3         -0.6929   -2.0410   -3.8449 O.2       1 <0>        -0.9525
     25 C17        -2.7355   -3.4047   -4.5683 C.ar      1 <0>        -0.6840
     26 C18        -1.9326   -4.5156   -4.7474 C.ar      1 <0>        -0.0200
     27 C19        -2.4264   -5.6265   -5.4055 C.ar      1 <0>        -0.1386
     28 C20        -3.7200   -5.6227   -5.8929 C.ar      1 <0>        -0.0007
     29 C21        -4.5213   -4.5099   -5.7181 C.ar      1 <0>        -0.1321
     30 C22        -4.0289   -3.4007   -5.0561 C.ar      1 <0>        -0.0030
     31 C23        -4.2568   -6.8319   -6.6146 C.3       1 <0>        -0.0393
     32 C24        -4.6599   -6.4394   -8.0374 C.3       1 <0>        -0.1422
     33 C25        -3.1763   -7.9137   -6.6707 C.3       1 <0>        -0.1471
     34 C26        -5.4792   -7.3702   -5.8684 C.3       1 <0>        -0.1395
     35 N3          0.5580    3.0283   -0.1875 N.pl3     1 <0>        -0.7789
     36 H3          2.1310    1.0696    0.0034 H         1 <0>         0.1396
     37 H4          2.8191   -1.2840    0.1966 H         1 <0>         0.1518
     38 H5          1.1245   -3.0675    0.2214 H         1 <0>         0.1478
     39 H6         -1.9741   -0.1589   -0.1166 H         1 <0>         0.1339
     40 H7         -1.1856   -3.6588    0.6563 H         1 <0>         0.1082
     41 H8         -2.4798   -2.4449    0.5153 H         1 <0>         0.1019
     42 H9         -0.3314   -4.9501   -0.8671 H         1 <0>         0.0809
     43 H10        -0.7789   -6.2612    0.2545 H         1 <0>         0.0802
     44 H11         0.7589   -7.1484   -1.4257 H         1 <0>         0.0821
     45 H12        -0.2640   -6.5156   -2.7386 H         1 <0>         0.0691
     46 H13        -1.1218   -8.5945   -0.6744 H         1 <0>         0.0746
     47 H14        -3.1201   -8.8083   -2.1424 H         1 <0>         0.0785
     48 H15        -2.5086   -7.4762   -3.1534 H         1 <0>         0.0693
     49 H16        -3.2626   -7.3230   -0.1982 H         1 <0>         0.0716
     50 H17        -4.1368   -6.5768   -1.5607 H         1 <0>         0.0934
     51 H18        -0.4642   -8.8509   -3.6440 H         1 <0>         0.0545
     52 H19         0.5333   -9.4640   -2.3033 H         1 <0>         0.0579
     53 H20        -1.0799  -10.1550   -2.6006 H         1 <0>         0.0583
     54 H21        -3.0650   -1.5779   -1.6744 H         1 <0>         0.4201
     55 H22        -0.9206   -4.5170   -4.3701 H         1 <0>         0.1322
     56 H23        -1.8006   -6.4960   -5.5419 H         1 <0>         0.1367
     57 H24        -5.5319   -4.5070   -6.0989 H         1 <0>         0.1332
     58 H25        -4.6548   -2.5313   -4.9199 H         1 <0>         0.1371
     59 H26        -3.7892   -6.0559   -8.5691 H         1 <0>         0.0586
     60 H27        -5.0482   -7.3141   -8.5594 H         1 <0>         0.0662
     61 H28        -5.4297   -5.6688   -7.9974 H         1 <0>         0.0597
     62 H29        -2.8891   -8.1933   -5.6571 H         1 <0>         0.0596
     63 H30        -3.5645   -8.7883   -7.1927 H         1 <0>         0.0651
     64 H31        -2.3055   -7.5302   -7.2024 H         1 <0>         0.0603
     65 H32        -6.2489   -6.5996   -5.8284 H         1 <0>         0.0591
     66 H33        -5.8674   -8.2448   -6.3903 H         1 <0>         0.0654
     67 H34        -5.1919   -7.6498   -4.8547 H         1 <0>         0.0576
     68 H35         1.5001    2.8056   -0.1261 H         1 <0>         0.4433
     69 H36         0.2825    3.9556   -0.2591 H         1 <0>         0.4320
     70 N4         -1.6886    2.2649   -0.2590 N.pl3     1 <0>        -0.7591
     71 H37        -2.3549    1.4837   -0.2483 H         1 <0>         0.4592
@<TRIPOS>BOND
     1    1   70 1
     2    2    3 1
     3    2   35 1
     4    2   70 2
     5    3    8 ar
     6    3    4 ar
     7    4    5 ar
     8    4   36 1
     9    5    6 ar
    10    5   37 1
    11    6    7 ar
    12    6   38 1
    13    7    8 ar
    14    7    9 1
    15    8   39 1
    16    9   10 1
    17    9   40 1
    18    9   41 1
    19   10   11 1
    20   10   12 1
    21   10   21 1
    22   12   13 2
    23   12   14 am
    24   14   19 1
    25   14   15 1
    26   15   16 1
    27   15   42 1
    28   15   43 1
    29   16   17 1
    30   16   44 1
    31   16   45 1
    32   17   18 1
    33   17   20 1
    34   17   46 1
    35   18   19 1
    36   18   47 1
    37   18   48 1
    38   19   49 1
    39   19   50 1
    40   20   51 1
    41   20   52 1
    42   20   53 1
    43   21   22 1
    44   21   54 1
    45   22   23 2
    46   22   24 2
    47   22   25 1
    48   25   30 ar
    49   25   26 ar
    50   26   27 ar
    51   26   55 1
    52   27   28 ar
    53   27   56 1
    54   28   29 ar
    55   28   31 1
    56   29   30 ar
    57   29   57 1
    58   30   58 1
    59   31   32 1
    60   31   33 1
    61   31   34 1
    62   32   59 1
    63   32   60 1
    64   32   61 1
    65   33   62 1
    66   33   63 1
    67   33   64 1
    68   34   65 1
    69   34   66 1
    70   34   67 1
    71   35   68 1
    72   35   69 1
    73   70   71 1
@<TRIPOS>MOLECULE
ZINC03834119
   65    68     0     0     0
SMALL
USER_CHARGES

@<TRIPOS>ATOM
      1 H1          2.6084   -1.7259   -0.0275 H         1 <0>         0.4435
      2 C1          0.8445   -0.7092   -0.0205 C.cat     1 <0>         0.5963
      3 C2          0.2701    0.6556   -0.0157 C.ar      1 <0>        -0.1382
      4 C3         -1.1134    0.8330   -0.0175 C.ar      1 <0>        -0.0417
      5 C4         -1.6426    2.1071   -0.0072 C.ar      1 <0>        -0.0983
      6 C5         -0.8040    3.2076   -0.0072 C.ar      1 <0>        -0.0349
      7 C6          0.5688    3.0381   -0.0111 C.ar      1 <0>        -0.0617
      8 C7          1.1101    1.7686   -0.0152 C.ar      1 <0>        -0.0415
      9 C8          1.4752    4.2420   -0.0107 C.3       1 <0>        -0.1020
     10 C9          1.7786    4.6526   -1.4529 C.3       1 <0>         0.1435
     11 H2          0.8505    4.9221   -1.9570 H         1 <0>         0.1110
     12 C10         2.7119    5.8358   -1.4526 C.2       1 <0>         0.5135
     13 O1          3.8942    5.6756   -1.6704 O.2       1 <0>        -0.5218
     14 N1          2.2328    7.0720   -1.2104 N.am      1 <0>        -0.6038
     15 C11         0.8269    7.2691   -0.8318 C.3       1 <0>         0.0975
     16 C12         0.1957    8.2903   -1.7764 C.3       1 <0>        -0.1343
     17 C13         1.0333    9.5710   -1.7730 C.3       1 <0>        -0.0930
     18 C14         2.4468    9.2596   -2.2702 C.3       1 <0>        -0.1320
     19 C15         3.1049    8.2488   -1.3257 C.3       1 <0>         0.1098
     20 C16         0.3855   10.6064   -2.6944 C.3       1 <0>        -0.1497
     21 N2          2.4093    3.5333   -2.1570 N.pl3     1 <0>        -1.1015
     22 S1          1.4862    2.4995   -3.0632 S.o2      1 <0>         2.6817
     23 O2          2.3786    1.5512   -3.6325 O.2       1 <0>        -0.9562
     24 O3          0.3863    2.1171   -2.2488 O.2       1 <0>        -0.9430
     25 C17         0.8214    3.4323   -4.4021 C.ar      1 <0>        -0.6827
     26 C18        -0.4106    4.0665   -4.2518 C.ar      1 <0>        -0.0555
     27 C19        -0.9496    4.7991   -5.2641 C.ar      1 <0>        -0.1094
     28 C20        -0.2619    4.9101   -6.4846 C.ar      1 <0>        -0.0100
     29 C21        -0.7899    5.6523   -7.5549 C.ar      1 <0>        -0.1212
     30 C22        -0.0955    5.7380   -8.7223 C.ar      1 <0>        -0.0855
     31 C23         1.1339    5.0993   -8.8744 C.ar      1 <0>        -0.1150
     32 C24         1.6759    4.3718   -7.8600 C.ar      1 <0>        -0.0921
     33 C25         0.9882    4.2608   -6.6394 C.ar      1 <0>        -0.0789
     34 C26         1.5159    3.5180   -5.5693 C.ar      1 <0>         0.0258
     35 N3          0.0119   -1.8072   -0.0210 N.pl3     1 <0>        -0.7824
     36 H3         -1.7690   -0.0252   -0.0223 H         1 <0>         0.1297
     37 H4         -2.7136    2.2458   -0.0038 H         1 <0>         0.1414
     38 H5         -1.2229    4.2030   -0.0037 H         1 <0>         0.1372
     39 H6          2.1821    1.6374   -0.0176 H         1 <0>         0.1227
     40 H7          0.9838    5.0665    0.5061 H         1 <0>         0.1047
     41 H8          2.4059    3.9959    0.5005 H         1 <0>         0.0983
     42 H9          0.2916    6.3226   -0.9087 H         1 <0>         0.0824
     43 H10         0.7725    7.6398    0.1917 H         1 <0>         0.0814
     44 H11        -0.8175    8.5172   -1.4445 H         1 <0>         0.0822
     45 H12         0.1647    7.8786   -2.7853 H         1 <0>         0.0687
     46 H13         1.0844    9.9685   -0.7592 H         1 <0>         0.0756
     47 H14         3.0360   10.1764   -2.2896 H         1 <0>         0.0811
     48 H15         2.3947    8.8387   -3.2743 H         1 <0>         0.0670
     49 H16         3.2402    8.7011   -0.3432 H         1 <0>         0.0746
     50 H17         4.0723    7.9486   -1.7284 H         1 <0>         0.0953
     51 H18         0.3348   10.2093   -3.7082 H         1 <0>         0.0543
     52 H19        -0.6213   10.8284   -2.3404 H         1 <0>         0.0580
     53 H20         0.9813   11.5191   -2.6911 H         1 <0>         0.0589
     54 H21         3.3676    3.3977   -2.0921 H         1 <0>         0.4296
     55 H22        -0.9434    3.9788   -3.3165 H         1 <0>         0.1371
     56 H23        -1.9034    5.2882   -5.1320 H         1 <0>         0.1380
     57 H24        -1.7414    6.1525   -7.4514 H         1 <0>         0.1356
     58 H25        -0.5034    6.3092   -9.5431 H         1 <0>         0.1331
     59 H26         1.6642    5.1827   -9.8116 H         1 <0>         0.1333
     60 H27         2.6292    3.8820   -7.9925 H         1 <0>         0.1354
     61 H28         2.4673    3.0175   -5.6728 H         1 <0>         0.1436
     62 H29        -0.9504   -1.6860   -0.0181 H         1 <0>         0.4426
     63 H30         0.3882   -2.7011   -0.0241 H         1 <0>         0.4296
     64 N4          2.1650   -0.8071   -0.0242 N.pl3     1 <0>        -0.7650
     65 H31         2.7427    0.0417   -0.0236 H         1 <0>         0.4571
@<TRIPOS>BOND
     1    1   64 1
     2    2    3 1
     3    2   35 1
     4    2   64 2
     5    3    8 ar
     6    3    4 ar
     7    4    5 ar
     8    4   36 1
     9    5    6 ar
    10    5   37 1
    11    6    7 ar
    12    6   38 1
    13    7    8 ar
    14    7    9 1
    15    8   39 1
    16    9   10 1
    17    9   40 1
    18    9   41 1
    19   10   11 1
    20   10   12 1
    21   10   21 1
    22   12   13 2
    23   12   14 am
    24   14   19 1
    25   14   15 1
    26   15   16 1
    27   15   42 1
    28   15   43 1
    29   16   17 1
    30   16   44 1
    31   16   45 1
    32   17   18 1
    33   17   20 1
    34   17   46 1
    35   18   19 1
    36   18   47 1
    37   18   48 1
    38   19   49 1
    39   19   50 1
    40   20   51 1
    41   20   52 1
    42   20   53 1
    43   21   22 1
    44   21   54 1
    45   22   23 2
    46   22   24 2
    47   22   25 1
    48   25   34 ar
    49   25   26 ar
    50   26   27 ar
    51   26   55 1
    52   27   28 ar
    53   27   56 1
    54   28   33 ar
    55   28   29 ar
    56   29   30 ar
    57   29   57 1
    58   30   31 ar
    59   30   58 1
    60   31   32 ar
    61   31   59 1
    62   32   33 ar
    63   32   60 1
    64   33   34 ar
    65   34   61 1
    66   35   62 1
    67   35   63 1
    68   64   65 1
@<TRIPOS>MOLECULE
ZINC03834120
   75    78     0     0     0
SMALL
USER_CHARGES

@<TRIPOS>ATOM
      1 H1         -3.7799    9.6518   -5.8517 H         1 <0>         0.4435
      2 C1         -3.7661   10.1112   -3.8684 C.cat     1 <0>         0.5962
      3 C2         -3.5312    9.5327   -2.5256 C.ar      1 <0>        -0.1372
      4 C3         -3.6590   10.3294   -1.3879 C.ar      1 <0>        -0.0424
      5 C4         -3.4393    9.7848   -0.1395 C.ar      1 <0>        -0.0976
      6 C5         -3.0983    8.4496   -0.0144 C.ar      1 <0>        -0.0362
      7 C6         -2.9646    7.6559   -1.1392 C.ar      1 <0>        -0.0614
      8 C7         -3.1818    8.1893   -2.3935 C.ar      1 <0>        -0.0410
      9 C8         -2.5869    6.2042   -0.9947 C.3       1 <0>        -0.1011
     10 C9         -1.0637    6.0669   -1.0369 C.3       1 <0>         0.1431
     11 H2         -0.6259    6.6192   -0.2053 H         1 <0>         0.1097
     12 C10        -0.6872    4.6118   -0.9269 C.2       1 <0>         0.5148
     13 O1         -0.3165    4.0054   -1.9097 O.2       1 <0>        -0.5163
     14 N1         -0.7626    3.9843    0.2634 N.am      1 <0>        -0.6044
     15 C11        -0.5080    2.5404    0.3652 C.3       1 <0>         0.0994
     16 C12         0.5964    2.3095    1.4041 C.3       1 <0>         0.1022
     17 N2          0.2618    3.0572    2.6243 N.pl3     1 <0>        -1.0017
     18 C13         0.0030    4.5006    2.5216 C.3       1 <0>         0.1002
     19 C14        -1.1013    4.7315    1.4828 C.3       1 <0>         0.0864
     20 S1          0.1719    2.2863    4.0872 S.o2      1 <0>         2.6068
     21 O2         -0.7202    3.0777    4.8600 O.2       1 <0>        -0.9504
     22 O3         -0.1463    0.9387    3.7679 O.2       1 <0>        -0.9466
     23 C15         1.8491    2.3872    4.7711 C.3       1 <0>        -0.6717
     24 N3         -0.5594    6.6076   -2.3016 N.pl3     1 <0>        -1.1021
     25 S2         -0.0248    8.1730   -2.3783 S.o2      1 <0>         2.6859
     26 O4          0.4187    8.3859   -3.7114 O.2       1 <0>        -0.9561
     27 O5         -1.0290    8.9752   -1.7722 O.2       1 <0>        -0.9469
     28 C16         1.4008    8.2877   -1.3490 C.ar      1 <0>        -0.7185
     29 C17         2.6562    8.0493   -1.8774 C.ar      1 <0>         0.0135
     30 C18         3.7717    8.1380   -1.0703 C.ar      1 <0>        -0.1666
     31 C19         3.6381    8.4684    0.2748 C.ar      1 <0>         0.2036
     32 C20         2.3808    8.7086    0.8002 C.ar      1 <0>        -0.1793
     33 C21         1.2649    8.6211   -0.0158 C.ar      1 <0>         0.0114
     34 C22         2.1922    9.0751    2.2504 C.3       1 <0>        -0.0804
     35 C23         3.4452    8.6979    3.0446 C.3       1 <0>        -0.1502
     36 C24         4.6714    9.2261    2.2890 C.3       1 <0>         0.1097
     37 O6          4.7592    8.5415    1.0386 O.3       1 <0>        -0.2994
     38 C25         5.9353    8.9633    3.1102 C.3       1 <0>        -0.1426
     39 C26         4.5191   10.7287    2.0444 C.3       1 <0>        -0.1789
     40 N4         -4.1111   11.4389   -3.9959 N.pl3     1 <0>        -0.7824
     41 H3         -3.9297   11.3706   -1.4840 H         1 <0>         0.1295
     42 H4         -3.5376   10.4007    0.7422 H         1 <0>         0.1412
     43 H5         -2.9317    8.0266    0.9652 H         1 <0>         0.1375
     44 H6         -3.0810    7.5676   -3.2708 H         1 <0>         0.1227
     45 H7         -3.0261    5.6314   -1.8114 H         1 <0>         0.0984
     46 H8         -2.9598    5.8249   -0.0432 H         1 <0>         0.1049
     47 H9         -0.1858    2.1566   -0.6027 H         1 <0>         0.1101
     48 H10        -1.4174    2.0272    0.6779 H         1 <0>         0.0840
     49 H11         0.6658    1.2463    1.6341 H         1 <0>         0.1116
     50 H12         1.5494    2.6614    1.0092 H         1 <0>         0.0771
     51 H13         0.9134    5.0113    2.2075 H         1 <0>         0.0756
     52 H14        -0.3180    4.8871    3.4890 H         1 <0>         0.1119
     53 H15        -1.1708    5.7947    1.2529 H         1 <0>         0.0941
     54 H16        -2.0539    4.3767    1.8765 H         1 <0>         0.0908
     55 H17         2.1333    3.4335    4.8834 H         1 <0>         0.1271
     56 H18         1.8746    1.8971    5.7443 H         1 <0>         0.1323
     57 H19         2.5470    1.8915    4.0963 H         1 <0>         0.1290
     58 H20        -0.5387    6.0486   -3.0941 H         1 <0>         0.4297
     59 H21         2.7635    7.7936   -2.9213 H         1 <0>         0.1444
     60 H22         4.7515    7.9507   -1.4838 H         1 <0>         0.1437
     61 H23         0.2837    8.8107    0.3936 H         1 <0>         0.1405
     62 H24         1.3330    8.5376    2.6516 H         1 <0>         0.0866
     63 H25         2.0196   10.1482    2.3332 H         1 <0>         0.0860
     64 H26         3.5092    7.6137    3.1367 H         1 <0>         0.0794
     65 H27         3.4021    9.1490    4.0360 H         1 <0>         0.0931
     66 H28         6.8061    9.3225    2.5619 H         1 <0>         0.0719
     67 H29         5.8647    9.4871    4.0635 H         1 <0>         0.0841
     68 H30         6.0355    7.8929    3.2904 H         1 <0>         0.0688
     69 H31         3.6130   10.9128    1.4671 H         1 <0>         0.0639
     70 H32         4.4524   11.2476    3.0005 H         1 <0>         0.0799
     71 H33         5.3834   11.0961    1.4910 H         1 <0>         0.0708
     72 H34        -4.2003   11.9949   -3.2060 H         1 <0>         0.4426
     73 H35        -4.2650   11.8179   -4.8754 H         1 <0>         0.4297
     74 N5         -3.6286    9.3003   -4.9061 N.pl3     1 <0>        -0.7649
     75 H36        -3.3697    8.3177   -4.7589 H         1 <0>         0.4571
@<TRIPOS>BOND
     1    1   74 1
     2    2    3 1
     3    2   40 1
     4    2   74 2
     5    3    8 ar
     6    3    4 ar
     7    4    5 ar
     8    4   41 1
     9    5    6 ar
    10    5   42 1
    11    6    7 ar
    12    6   43 1
    13    7    8 ar
    14    7    9 1
    15    8   44 1
    16    9   10 1
    17    9   45 1
    18    9   46 1
    19   10   11 1
    20   10   12 1
    21   10   24 1
    22   12   13 2
    23   12   14 am
    24   14   19 1
    25   14   15 1
    26   15   16 1
    27   15   47 1
    28   15   48 1
    29   16   17 1
    30   16   49 1
    31   16   50 1
    32   17   18 1
    33   17   20 1
    34   18   19 1
    35   18   51 1
    36   18   52 1
    37   19   53 1
    38   19   54 1
    39   20   21 2
    40   20   22 2
    41   20   23 1
    42   23   55 1
    43   23   56 1
    44   23   57 1
    45   24   25 1
    46   24   58 1
    47   25   26 2
    48   25   27 2
    49   25   28 1
    50   28   33 ar
    51   28   29 ar
    52   29   30 ar
    53   29   59 1
    54   30   31 ar
    55   30   60 1
    56   31   37 1
    57   31   32 ar
    58   32   33 ar
    59   32   34 1
    60   33   61 1
    61   34   35 1
    62   34   62 1
    63   34   63 1
    64   35   36 1
    65   35   64 1
    66   35   65 1
    67   36   37 1
    68   36   38 1
    69   36   39 1
    70   38   66 1
    71   38   67 1
    72   38   68 1
    73   39   69 1
    74   39   70 1
    75   39   71 1
    76   40   72 1
    77   40   73 1
    78   74   75 1
@<TRIPOS>MOLECULE
ZINC03834121
   74    77     0     0     0
SMALL
USER_CHARGES

@<TRIPOS>ATOM
      1 H1         -3.3995   -3.1735   -3.5584 H         1 <0>         0.4446
      2 C1         -4.4514   -2.0326   -2.2408 C.cat     1 <0>         0.6017
      3 C2         -4.3551   -0.8277   -1.3852 C.ar      1 <0>        -0.1523
      4 C3         -5.4434   -0.4324   -0.6074 C.ar      1 <0>        -0.0551
      5 C4         -5.3474    0.6908    0.1880 C.ar      1 <0>        -0.1062
      6 C5         -4.1748    1.4246    0.2151 C.ar      1 <0>        -0.0437
      7 C6         -3.0922    1.0376   -0.5540 C.ar      1 <0>        -0.0720
      8 C7         -3.1779   -0.0811   -1.3577 C.ar      1 <0>        -0.0598
      9 C8         -1.8188    1.8428   -0.5190 C.3       1 <0>        -0.0909
     10 C9         -0.9041    1.3030    0.5823 C.3       1 <0>         0.1355
     11 H2         -0.7441    0.2354    0.4308 H         1 <0>         0.1169
     12 C10         0.4196    2.0214    0.5328 C.2       1 <0>         0.4889
     13 O1          0.6852    2.8613    1.3665 O.2       1 <0>        -0.5100
     14 N1          1.3084    1.7306   -0.4377 N.am      1 <0>        -0.6063
     15 C11         0.9575    0.8007   -1.5198 C.3       1 <0>         0.0967
     16 C12         2.0180   -0.2961   -1.5966 C.3       1 <0>        -0.1350
     17 C13         3.4009    0.3435   -1.7407 C.3       1 <0>        -0.0930
     18 C14         3.6920    1.2143   -0.5163 C.3       1 <0>        -0.1322
     19 C15         2.6486    2.3326   -0.4303 C.3       1 <0>         0.1080
     20 C16         4.4612   -0.7541   -1.8493 C.3       1 <0>        -0.1500
     21 N2         -1.5304    1.5224    1.8884 N.pl3     1 <0>        -1.0990
     22 S1         -1.3304    0.4111    3.0997 S.o2      1 <0>         2.5964
     23 O2         -2.0806    0.9257    4.1913 O.2       1 <0>        -0.9113
     24 O3         -1.6729   -0.8350    2.5087 O.2       1 <0>        -0.9565
     25 C17         0.4418    0.4543    3.4840 C.3       1 <0>        -0.5917
     26 C18         0.7457   -0.5444    4.6026 C.3       1 <0>        -0.1150
     27 C19         0.4490   -2.0402    4.2777 C.3       1 <0>        -0.1217
     28 C20         1.3051   -2.8241    5.3279 C.3       1 <0>        -0.1235
     29 C21         2.0022   -1.7151    6.1747 C.3       1 <0>        -0.0891
     30 H3          2.8684   -2.0301    6.7567 H         1 <0>         0.1206
     31 C22         2.2400   -0.6190    5.0759 C.3       1 <0>        -0.0413
     32 C23         3.1739   -1.0920    3.9602 C.3       1 <0>        -0.1373
     33 C24         2.7141    0.6979    5.6939 C.3       1 <0>        -0.1510
     34 C25         0.8394   -1.0548    6.9773 C.3       1 <0>        -0.1691
     35 C26         0.0321   -0.2908    5.9380 C.2       1 <0>         0.3432
     36 O4         -0.9591    0.3736    6.1241 O.2       1 <0>        -0.3903
     37 N3         -5.6177   -2.7657   -2.2695 N.pl3     1 <0>        -0.7790
     38 H4         -6.3593   -1.0042   -0.6280 H         1 <0>         0.1395
     39 H5         -6.1893    0.9976    0.7911 H         1 <0>         0.1519
     40 H6         -4.1043    2.3029    0.8396 H         1 <0>         0.1462
     41 H7         -2.3334   -0.3796   -1.9612 H         1 <0>         0.1349
     42 H8         -2.0548    2.8873   -0.3158 H         1 <0>         0.1060
     43 H9         -1.3134    1.7652   -1.4816 H         1 <0>         0.1042
     44 H10        -0.0151    0.3532   -1.3160 H         1 <0>         0.0788
     45 H11         0.9232    1.3389   -2.4672 H         1 <0>         0.0801
     46 H12         1.8209   -0.9346   -2.4579 H         1 <0>         0.0794
     47 H13         1.9868   -0.8940   -0.6858 H         1 <0>         0.0699
     48 H14         3.4236    0.9605   -2.6389 H         1 <0>         0.0754
     49 H15         4.6865    1.6508   -0.6086 H         1 <0>         0.0816
     50 H16         3.6452    0.6030    0.3849 H         1 <0>         0.0681
     51 H17         2.7549    2.9982   -1.2870 H         1 <0>         0.0737
     52 H18         2.7904    2.8975    0.4910 H         1 <0>         0.0967
     53 H19         4.4390   -1.3710   -0.9510 H         1 <0>         0.0555
     54 H20         4.2540   -1.3744   -2.7213 H         1 <0>         0.0568
     55 H21         5.4461   -0.2988   -1.9532 H         1 <0>         0.0598
     56 H22        -2.0622    2.3186    2.0436 H         1 <0>         0.4248
     57 H23         1.0131    0.1884    2.5946 H         1 <0>         0.1303
     58 H24         0.7192    1.4575    3.8074 H         1 <0>         0.1457
     59 H25        -0.6115   -2.2549    4.4096 H         1 <0>         0.0743
     60 H26         0.7621   -2.2777    3.2610 H         1 <0>         0.0878
     61 H27         2.0484   -3.4457    4.8290 H         1 <0>         0.0799
     62 H28         0.6601   -3.4356    5.9588 H         1 <0>         0.0760
     63 H29         3.1178   -0.3987    3.1210 H         1 <0>         0.0565
     64 H30         4.1973   -1.1281    4.3338 H         1 <0>         0.0666
     65 H31         2.8721   -2.0863    3.6309 H         1 <0>         0.0654
     66 H32         2.0955    0.9368    6.5590 H         1 <0>         0.0599
     67 H33         3.7536    0.5990    6.0068 H         1 <0>         0.0705
     68 H34         2.6310    1.4961    4.9563 H         1 <0>         0.0616
     69 H35         1.2190   -0.4516    7.6787 H         1 <0>         0.0963
     70 H36         0.2221   -1.8181    7.4510 H         1 <0>         0.1031
     71 H37        -6.3757   -2.4926   -1.7293 H         1 <0>         0.4435
     72 H38        -5.6808   -3.5550   -2.8299 H         1 <0>         0.4317
     73 N4         -3.3825   -2.3521   -2.9536 N.pl3     1 <0>        -0.7606
     74 H39        -2.5363   -1.7733   -2.8978 H         1 <0>         0.4583
@<TRIPOS>BOND
     1    1   73 1
     2    2    3 1
     3    2   37 1
     4    2   73 2
     5    3    8 ar
     6    3    4 ar
     7    4    5 ar
     8    4   38 1
     9    5    6 ar
    10    5   39 1
    11    6    7 ar
    12    6   40 1
    13    7    8 ar
    14    7    9 1
    15    8   41 1
    16    9   10 1
    17    9   42 1
    18    9   43 1
    19   10   11 1
    20   10   12 1
    21   10   21 1
    22   12   13 2
    23   12   14 am
    24   14   19 1
    25   14   15 1
    26   15   16 1
    27   15   44 1
    28   15   45 1
    29   16   17 1
    30   16   46 1
    31   16   47 1
    32   17   18 1
    33   17   20 1
    34   17   48 1
    35   18   19 1
    36   18   49 1
    37   18   50 1
    38   19   51 1
    39   19   52 1
    40   20   53 1
    41   20   54 1
    42   20   55 1
    43   21   22 1
    44   21   56 1
    45   22   23 2
    46   22   24 2
    47   22   25 1
    48   25   26 1
    49   25   57 1
    50   25   58 1
    51   26   31 1
    52   26   35 1
    53   26   27 1
    54   27   28 1
    55   27   59 1
    56   27   60 1
    57   28   29 1
    58   28   61 1
    59   28   62 1
    60   29   30 1
    61   29   31 1
    62   29   34 1
    63   31   32 1
    64   31   33 1
    65   32   63 1
    66   32   64 1
    67   32   65 1
    68   33   66 1
    69   33   67 1
    70   33   68 1
    71   34   35 1
    72   34   69 1
    73   34   70 1
    74   35   36 2
    75   37   71 1
    76   37   72 1
    77   73   74 1
@<TRIPOS>MOLECULE
ZINC03834122
   65    68     0     0     0
SMALL
USER_CHARGES

@<TRIPOS>ATOM
      1 H1         -8.4192    5.1630    3.4106 H         1 <0>         0.4458
      2 C1         -7.8985    6.8194    2.3479 C.cat     1 <0>         0.5989
      3 C2         -6.7347    7.6322    1.9261 C.ar      1 <0>        -0.1538
      4 C3         -6.9222    8.7679    1.1384 C.ar      1 <0>        -0.0560
      5 C4         -5.8341    9.5212    0.7490 C.ar      1 <0>        -0.1039
      6 C5         -4.5592    9.1556    1.1431 C.ar      1 <0>        -0.0457
      7 C6         -4.3662    8.0273    1.9196 C.ar      1 <0>        -0.0713
      8 C7         -5.4468    7.2656    2.3154 C.ar      1 <0>        -0.0613
      9 C8         -2.9738    7.6325    2.3394 C.3       1 <0>        -0.0858
     10 C9         -2.3716    6.6948    1.2912 C.3       1 <0>         0.1363
     11 H2         -2.3751    7.1870    0.3186 H         1 <0>         0.1202
     12 C10        -0.9552    6.3540    1.6765 C.2       1 <0>         0.4935
     13 O1         -0.7236    5.3390    2.2988 O.2       1 <0>        -0.5061
     14 N1          0.0542    7.1769    1.3296 N.am      1 <0>        -0.6044
     15 C11        -0.2191    8.4557    0.6599 C.3       1 <0>         0.0976
     16 C12         0.6023    8.5297   -0.6259 C.3       1 <0>        -0.1347
     17 C13         2.0788    8.2935   -0.2997 C.3       1 <0>        -0.0918
     18 C14         2.2523    6.8992    0.3069 C.3       1 <0>        -0.1308
     19 C15         1.4492    6.8094    1.6083 C.3       1 <0>         0.1123
     20 C16         2.9071    8.3983   -1.5818 C.3       1 <0>        -0.1492
     21 N2         -3.1674    5.4668    1.2199 N.pl3     1 <0>        -1.0974
     22 S1         -3.3824    4.7026   -0.2334 S.o2      1 <0>         2.6901
     23 O2         -3.7687    5.7035   -1.1653 O.2       1 <0>        -0.9531
     24 O3         -4.1788    3.5546    0.0253 O.2       1 <0>        -0.9498
     25 C17        -1.8044    4.1145   -0.7514 C.ar      1 <0>        -0.6803
     26 C18        -1.2163    4.6256   -1.8677 C.ar      1 <0>         0.0114
     27 C19         0.0287    4.1692   -2.2956 C.ar      1 <0>        -0.1530
     28 C20         0.6985    3.2074   -1.6032 C.ar      1 <0>        -0.0300
     29 C21         0.1262    2.6606   -0.4424 C.ar      1 <0>        -0.0725
     30 C22        -1.1429    3.1208   -0.0103 C.ar      1 <0>         0.0435
     31 C23        -1.7151    2.5743    1.1513 C.ar      1 <0>        -0.1246
     32 C24        -1.0455    1.6129    1.8436 C.ar      1 <0>        -0.0783
     33 C25         0.2026    1.1605    1.4188 C.ar      1 <0>        -0.1181
     34 C26         0.7877    1.6666    0.2991 C.ar      1 <0>        -0.0913
     35 N3         -9.1698    7.1842    1.9617 N.pl3     1 <0>        -0.7788
     36 H3         -7.9174    9.0569    0.8340 H         1 <0>         0.1395
     37 H4         -5.9780   10.4006    0.1386 H         1 <0>         0.1518
     38 H5         -3.7109    9.7510    0.8395 H         1 <0>         0.1480
     39 H6         -5.2953    6.3871    2.9251 H         1 <0>         0.1337
     40 H7         -3.0153    7.1227    3.3020 H         1 <0>         0.1018
     41 H8         -2.3540    8.5250    2.4273 H         1 <0>         0.1080
     42 H9         -1.2800    8.5225    0.4185 H         1 <0>         0.0812
     43 H10         0.0607    9.2794    1.3168 H         1 <0>         0.0794
     44 H11         0.4829    9.5136   -1.0794 H         1 <0>         0.0816
     45 H12         0.2562    7.7641   -1.3203 H         1 <0>         0.0691
     46 H13         2.4175    9.0447    0.4138 H         1 <0>         0.0743
     47 H14         3.3070    6.7227    0.5174 H         1 <0>         0.0782
     48 H15         1.8906    6.1489   -0.3962 H         1 <0>         0.0673
     49 H16         1.8678    7.4960    2.3442 H         1 <0>         0.0711
     50 H17         1.4887    5.7901    1.9925 H         1 <0>         0.0935
     51 H18         2.5689    7.6468   -2.2953 H         1 <0>         0.0547
     52 H19         2.7838    9.3912   -2.0140 H         1 <0>         0.0578
     53 H20         3.9589    8.2313   -1.3495 H         1 <0>         0.0580
     54 H21        -3.5682    5.1013    2.0241 H         1 <0>         0.4192
     55 H22        -1.7244    5.3930   -2.4326 H         1 <0>         0.1415
     56 H23         0.4709    4.5879   -3.1876 H         1 <0>         0.1361
     57 H24         1.6651    2.8668   -1.9441 H         1 <0>         0.1374
     58 H25        -2.6812    2.9156    1.4928 H         1 <0>         0.1239
     59 H26        -1.4875    1.1944    2.7357 H         1 <0>         0.1283
     60 H27         0.7131    0.3970    1.9869 H         1 <0>         0.1295
     61 H28         1.7553    1.3066   -0.0177 H         1 <0>         0.1324
     62 H29        -9.3024    7.9733    1.4135 H         1 <0>         0.4433
     63 H30        -9.9320    6.6517    2.2379 H         1 <0>         0.4320
     64 N4         -7.6506    5.7547    3.0949 N.pl3     1 <0>        -0.7592
     65 H31        -6.6847    5.5247    3.3564 H         1 <0>         0.4590
@<TRIPOS>BOND
     1    1   64 1
     2    2    3 1
     3    2   35 1
     4    2   64 2
     5    3    8 ar
     6    3    4 ar
     7    4    5 ar
     8    4   36 1
     9    5    6 ar
    10    5   37 1
    11    6    7 ar
    12    6   38 1
    13    7    8 ar
    14    7    9 1
    15    8   39 1
    16    9   10 1
    17    9   40 1
    18    9   41 1
    19   10   11 1
    20   10   12 1
    21   10   21 1
    22   12   13 2
    23   12   14 am
    24   14   19 1
    25   14   15 1
    26   15   16 1
    27   15   42 1
    28   15   43 1
    29   16   17 1
    30   16   44 1
    31   16   45 1
    32   17   18 1
    33   17   20 1
    34   17   46 1
    35   18   19 1
    36   18   47 1
    37   18   48 1
    38   19   49 1
    39   19   50 1
    40   20   51 1
    41   20   52 1
    42   20   53 1
    43   21   22 1
    44   21   54 1
    45   22   23 2
    46   22   24 2
    47   22   25 1
    48   25   30 ar
    49   25   26 ar
    50   26   27 ar
    51   26   55 1
    52   27   28 ar
    53   27   56 1
    54   28   29 ar
    55   28   57 1
    56   29   34 ar
    57   29   30 ar
    58   30   31 ar
    59   31   32 ar
    60   31   58 1
    61   32   33 ar
    62   32   59 1
    63   33   34 ar
    64   33   60 1
    65   34   61 1
    66   35   62 1
    67   35   63 1
    68   64   65 1
@<TRIPOS>MOLECULE
ZINC03834123
   68    72     0     0     0
SMALL
USER_CHARGES

@<TRIPOS>ATOM
      1 H1         -3.1383   11.0618    1.0043 H         1 <0>         0.4411
      2 C1         -3.3478   10.3329   -0.8850 C.cat     1 <0>         0.5992
      3 C2         -3.2523    9.0920   -1.6875 C.ar      1 <0>        -0.1389
      4 C3         -3.5143    9.1221   -3.0571 C.ar      1 <0>        -0.0491
      5 C4         -3.4231    7.9627   -3.7996 C.ar      1 <0>        -0.1090
      6 C5         -3.0675    6.7731   -3.1892 C.ar      1 <0>        -0.0423
      7 C6         -2.8116    6.7360   -1.8304 C.ar      1 <0>        -0.0644
      8 C7         -2.8994    7.8890   -1.0771 C.ar      1 <0>        -0.0091
      9 C8         -2.4299    5.4351   -1.1723 C.3       1 <0>        -0.1183
     10 C9         -3.6924    4.7184   -0.6890 C.3       1 <0>         0.1462
     11 H2         -4.3834    4.5973   -1.5232 H         1 <0>         0.1065
     12 C10        -3.3228    3.3637   -0.1419 C.2       1 <0>         0.4903
     13 O1         -3.5692    3.0884    1.0132 O.2       1 <0>        -0.4328
     14 N1         -2.7183    2.4583   -0.9365 N.am      1 <0>        -0.5957
     15 C11        -2.3245    2.7904   -2.3098 C.3       1 <0>         0.1428
     16 C12        -2.7059    1.6613   -3.2338 C.ar      1 <0>        -0.1074
     17 C13        -2.6259    1.8882   -4.6012 C.ar      1 <0>        -0.1150
     18 C14        -2.9538    0.8915   -5.4970 C.ar      1 <0>        -0.1300
     19 C15        -3.3642   -0.3430   -5.0288 C.ar      1 <0>        -0.1152
     20 C16        -3.4470   -0.5687   -3.6708 C.ar      1 <0>        -0.1209
     21 C17        -3.1215    0.4350   -2.7661 C.ar      1 <0>        -0.0482
     22 C18        -3.2495    0.1203   -1.2990 C.3       1 <0>        -0.0879
     23 C19        -2.4271    1.0969   -0.4597 C.3       1 <0>         0.1043
     24 H3         -1.3650    0.8832   -0.5802 H         1 <0>         0.0726
     25 C20        -2.8109    0.9703    0.9921 C.2       1 <0>         0.4851
     26 O2         -1.9531    0.9169    1.8414 O.co2     1 <0>        -0.6406
     27 N2         -4.3319    5.5121    0.3634 N.pl3     1 <0>        -1.0940
     28 S1         -5.5525    6.5639   -0.0189 S.o2      1 <0>         2.6815
     29 O3         -5.9768    7.1545    1.2018 O.2       1 <0>        -0.9611
     30 O4         -5.0933    7.3362   -1.1198 O.2       1 <0>        -0.9502
     31 C21        -6.9047    5.6003   -0.6089 C.ar      1 <0>        -0.6796
     32 C22        -7.0042    5.3183   -1.9701 C.ar      1 <0>        -0.0506
     33 C23        -8.0329    4.5724   -2.4578 C.ar      1 <0>        -0.1131
     34 C24        -9.0175    4.0877   -1.5799 C.ar      1 <0>        -0.0088
     35 C25       -10.0979    3.3200   -2.0473 C.ar      1 <0>        -0.1217
     36 C26       -11.0325    2.8672   -1.1678 C.ar      1 <0>        -0.0885
     37 C27       -10.9359    3.1538    0.1927 C.ar      1 <0>        -0.1199
     38 C28        -9.9040    3.8944    0.6813 C.ar      1 <0>        -0.0866
     39 C29        -8.9192    4.3791   -0.1964 C.ar      1 <0>        -0.0771
     40 C30        -7.8391    5.1474    0.2707 C.ar      1 <0>         0.0314
     41 N3         -3.6966   11.5201   -1.4910 N.pl3     1 <0>        -0.7870
     42 H4         -3.7876   10.0509   -3.5356 H         1 <0>         0.1269
     43 H5         -3.6255    7.9848   -4.8603 H         1 <0>         0.1392
     44 H6         -2.9931    5.8691   -3.7753 H         1 <0>         0.1379
     45 H7         -2.6958    7.8595   -0.0169 H         1 <0>         0.1200
     46 H8         -1.7779    5.6355   -0.3223 H         1 <0>         0.0989
     47 H9         -1.9066    4.8042   -1.8909 H         1 <0>         0.1129
     48 H10        -1.2461    2.9442   -2.3508 H         1 <0>         0.0812
     49 H11        -2.8329    3.7024   -2.6225 H         1 <0>         0.0878
     50 H12        -2.3046    2.8524   -4.9665 H         1 <0>         0.1194
     51 H13        -2.8907    1.0750   -6.5595 H         1 <0>         0.1203
     52 H14        -3.6190   -1.1286   -5.7247 H         1 <0>         0.1204
     53 H15        -3.7671   -1.5339   -3.3071 H         1 <0>         0.1224
     54 H16        -4.2973    0.1911   -1.0071 H         1 <0>         0.0975
     55 H17        -2.8946   -0.8942   -1.1176 H         1 <0>         0.0803
     56 H18        -4.0402    5.4216    1.2840 H         1 <0>         0.4306
     57 H19        -6.2515    5.6936   -2.6476 H         1 <0>         0.1358
     58 H20        -8.0951    4.3586   -3.5146 H         1 <0>         0.1357
     59 H21       -10.1857    3.0901   -3.0989 H         1 <0>         0.1331
     60 H22       -11.8616    2.2771   -1.5296 H         1 <0>         0.1300
     61 H23       -11.6915    2.7828    0.8695 H         1 <0>         0.1309
     62 H24        -9.8423    4.1089    1.7380 H         1 <0>         0.1352
     63 H25        -7.7511    5.3771    1.3224 H         1 <0>         0.1442
     64 H26        -3.8796   11.5431   -2.4433 H         1 <0>         0.4414
     65 H27        -3.7592   12.3329   -0.9653 H         1 <0>         0.4270
     66 N4         -3.0859   10.2349    0.4092 N.pl3     1 <0>        -0.7660
     67 H28        -2.8300    9.3266    0.8139 H         1 <0>         0.4583
     68 O5         -4.1058    0.9168    1.3417 O.co2     1 <0>        -0.7391
@<TRIPOS>BOND
     1    1   66 1
     2    2    3 1
     3    2   41 1
     4    2   66 2
     5    3    8 ar
     6    3    4 ar
     7    4    5 ar
     8    4   42 1
     9    5    6 ar
    10    5   43 1
    11    6    7 ar
    12    6   44 1
    13    7    8 ar
    14    7    9 1
    15    8   45 1
    16    9   10 1
    17    9   46 1
    18    9   47 1
    19   10   11 1
    20   10   12 1
    21   10   27 1
    22   12   13 2
    23   12   14 am
    24   14   23 1
    25   14   15 1
    26   15   16 1
    27   15   48 1
    28   15   49 1
    29   16   21 ar
    30   16   17 ar
    31   17   18 ar
    32   17   50 1
    33   18   19 ar
    34   18   51 1
    35   19   20 ar
    36   19   52 1
    37   20   21 ar
    38   20   53 1
    39   21   22 1
    40   22   23 1
    41   22   54 1
    42   22   55 1
    43   23   24 1
    44   23   25 1
    45   25   26 2
    46   25   68 1
    47   27   28 1
    48   27   56 1
    49   28   29 2
    50   28   30 2
    51   28   31 1
    52   31   40 ar
    53   31   32 ar
    54   32   33 ar
    55   32   57 1
    56   33   34 ar
    57   33   58 1
    58   34   39 ar
    59   34   35 ar
    60   35   36 ar
    61   35   59 1
    62   36   37 ar
    63   36   60 1
    64   37   38 ar
    65   37   61 1
    66   38   39 ar
    67   38   62 1
    68   39   40 ar
    69   40   63 1
    70   41   64 1
    71   41   65 1
    72   66   67 1
@<TRIPOS>MOLECULE
ZINC03834124
   65    68     0     0     0
SMALL
USER_CHARGES

@<TRIPOS>ATOM
      1 H1          3.8335   12.3439    0.2446 H         1 <0>         0.4458
      2 C1          1.8770   12.8659    0.0340 C.cat     1 <0>         0.5989
      3 C2          0.6173   12.4723   -0.6378 C.ar      1 <0>        -0.1534
      4 C3         -0.5439   13.2198   -0.4417 C.ar      1 <0>        -0.0558
      5 C4         -1.7144   12.8485   -1.0705 C.ar      1 <0>        -0.1035
      6 C5         -1.7366   11.7404   -1.8989 C.ar      1 <0>        -0.0458
      7 C6         -0.5896   10.9919   -2.0928 C.ar      1 <0>        -0.0713
      8 C7          0.5873   11.3534   -1.4691 C.ar      1 <0>        -0.0611
      9 C8         -0.6238    9.7829   -2.9917 C.3       1 <0>        -0.0887
     10 C9         -0.9789    8.5440   -2.1669 C.3       1 <0>         0.1341
     11 H2         -1.9452    8.6929   -1.6852 H         1 <0>         0.1188
     12 C10        -1.0488    7.3411   -3.0721 C.2       1 <0>         0.4881
     13 O1         -0.0873    6.6106   -3.1852 O.2       1 <0>        -0.5077
     14 N1         -2.1799    7.0772   -3.7557 N.am      1 <0>        -0.5957
     15 C11        -2.2533    5.8582   -4.5298 C.3       1 <0>         0.1173
     16 C12        -1.7263    6.1103   -5.9581 C.3       1 <0>        -0.1321
     17 C13        -2.6789    6.9370   -6.7148 C.3       1 <0>        -0.1230
     18 C14        -2.8957    8.3329   -6.1386 C.3       1 <0>        -0.1156
     19 C15        -3.9499    8.2709   -5.0610 C.3       1 <0>        -0.1342
     20 C16        -3.2903    8.0472   -3.6880 C.3       1 <0>         0.0947
     21 N2          0.0481    8.3271   -1.1449 N.pl3     1 <0>        -1.0964
     22 S1         -0.3749    7.7280    0.3398 S.o2      1 <0>         2.6876
     23 O2         -1.4775    8.5024    0.7911 O.2       1 <0>        -0.9508
     24 O3          0.8279    7.6074    1.0869 O.2       1 <0>        -0.9503
     25 C17        -0.9780    6.0916    0.0888 C.ar      1 <0>        -0.6712
     26 C18        -0.0902    5.0181    0.1349 C.ar      1 <0>        -0.0386
     27 C19        -0.5232    3.7419   -0.0547 C.ar      1 <0>        -0.1090
     28 C20        -1.8854    3.4993   -0.3010 C.ar      1 <0>        -0.0072
     29 C21        -2.3699    2.1954   -0.5021 C.ar      1 <0>        -0.1180
     30 C22        -3.6955    1.9987   -0.7387 C.ar      1 <0>        -0.0895
     31 C23        -4.5824    3.0726   -0.7902 C.ar      1 <0>        -0.1162
     32 C24        -4.1503    4.3482   -0.5945 C.ar      1 <0>        -0.0935
     33 C25        -2.7881    4.5908   -0.3480 C.ar      1 <0>        -0.0757
     34 C26        -2.3037    5.8947   -0.1478 C.ar      1 <0>         0.0144
     35 N3          1.9035   13.9720    0.8550 N.pl3     1 <0>        -0.7788
     36 H3         -0.5266   14.0877    0.2009 H         1 <0>         0.1396
     37 H4         -2.6142   13.4263   -0.9193 H         1 <0>         0.1519
     38 H5         -2.6541   11.4562   -2.3925 H         1 <0>         0.1478
     39 H6          1.4831   10.7706   -1.6245 H         1 <0>         0.1340
     40 H7          0.3545    9.6447   -3.4522 H         1 <0>         0.1019
     41 H8         -1.3739    9.9291   -3.7689 H         1 <0>         0.1095
     42 H9         -1.6450    5.0890   -4.0540 H         1 <0>         0.0833
     43 H10        -3.2890    5.5220   -4.5799 H         1 <0>         0.0787
     44 H11        -1.5920    5.1563   -6.4680 H         1 <0>         0.0753
     45 H12        -0.7679    6.6262   -5.8996 H         1 <0>         0.0654
     46 H13        -3.6388    6.4212   -6.7427 H         1 <0>         0.0619
     47 H14        -2.3115    7.0373   -7.7361 H         1 <0>         0.0605
     48 H15        -3.2243    9.0062   -6.9303 H         1 <0>         0.0674
     49 H16        -1.9619    8.7002   -5.7130 H         1 <0>         0.0609
     50 H17        -4.6341    7.4488   -5.2714 H         1 <0>         0.0745
     51 H18        -4.5053    9.2087   -5.0467 H         1 <0>         0.0814
     52 H19        -4.0417    7.6770   -2.9904 H         1 <0>         0.0731
     53 H20        -2.9066    8.9995   -3.3219 H         1 <0>         0.0787
     54 H21         0.9759    8.5344   -1.3378 H         1 <0>         0.4201
     55 H22         0.9571    5.2018    0.3244 H         1 <0>         0.1370
     56 H23         0.1763    2.9200   -0.0164 H         1 <0>         0.1376
     57 H24        -1.6935    1.3539   -0.4694 H         1 <0>         0.1345
     58 H25        -4.0651    0.9957   -0.8933 H         1 <0>         0.1312
     59 H26        -5.6290    2.8894   -0.9842 H         1 <0>         0.1307
     60 H27        -4.8496    5.1702   -0.6337 H         1 <0>         0.1315
     61 H28        -2.9799    6.7361   -0.1808 H         1 <0>         0.1392
     62 H29         1.0970   14.4931    0.9930 H         1 <0>         0.4433
     63 H30         2.7287   14.2298    1.2950 H         1 <0>         0.4321
     64 N4          2.9423   12.1137   -0.1952 N.pl3     1 <0>        -0.7590
     65 H31         2.8714   11.2987   -0.8157 H         1 <0>         0.4591
@<TRIPOS>BOND
     1    1   64 1
     2    2    3 1
     3    2   35 1
     4    2   64 2
     5    3    8 ar
     6    3    4 ar
     7    4    5 ar
     8    4   36 1
     9    5    6 ar
    10    5   37 1
    11    6    7 ar
    12    6   38 1
    13    7    8 ar
    14    7    9 1
    15    8   39 1
    16    9   10 1
    17    9   40 1
    18    9   41 1
    19   10   11 1
    20   10   12 1
    21   10   21 1
    22   12   13 2
    23   12   14 am
    24   14   20 1
    25   14   15 1
    26   15   16 1
    27   15   42 1
    28   15   43 1
    29   16   17 1
    30   16   44 1
    31   16   45 1
    32   17   18 1
    33   17   46 1
    34   17   47 1
    35   18   19 1
    36   18   48 1
    37   18   49 1
    38   19   20 1
    39   19   50 1
    40   19   51 1
    41   20   52 1
    42   20   53 1
    43   21   22 1
    44   21   54 1
    45   22   23 2
    46   22   24 2
    47   22   25 1
    48   25   34 ar
    49   25   26 ar
    50   26   27 ar
    51   26   55 1
    52   27   28 ar
    53   27   56 1
    54   28   33 ar
    55   28   29 ar
    56   29   30 ar
    57   29   57 1
    58   30   31 ar
    59   30   58 1
    60   31   32 ar
    61   31   59 1
    62   32   33 ar
    63   32   60 1
    64   33   34 ar
    65   34   61 1
    66   35   62 1
    67   35   63 1
    68   64   65 1
@<TRIPOS>MOLECULE
ZINC03834125
   71    75     0     0     0
SMALL
USER_CHARGES

@<TRIPOS>ATOM
      1 H1         -3.5016   14.1347   -2.1633 H         1 <0>         0.4436
      2 C1         -1.6357   13.3532   -2.3905 C.cat     1 <0>         0.5964
      3 C2         -0.5624   12.6338   -1.6671 C.ar      1 <0>        -0.1385
      4 C3          0.6223   12.2999   -2.3232 C.ar      1 <0>        -0.0421
      5 C4          1.6188   11.6300   -1.6437 C.ar      1 <0>        -0.0963
      6 C5          1.4470   11.2944   -0.3125 C.ar      1 <0>        -0.0351
      7 C6          0.2722   11.6177    0.3421 C.ar      1 <0>        -0.0642
      8 C7         -0.7319   12.2877   -0.3270 C.ar      1 <0>        -0.0431
      9 C8          0.0907   11.2429    1.7905 C.3       1 <0>        -0.1030
     10 C9         -0.5468    9.8551    1.8822 C.3       1 <0>         0.1406
     11 H2          0.1111    9.1216    1.4159 H         1 <0>         0.1094
     12 C10        -0.7566    9.4933    3.3299 C.2       1 <0>         0.5130
     13 O1         -1.8698    9.5321    3.8095 O.2       1 <0>        -0.5202
     14 N1          0.2930    9.1267    4.0918 N.am      1 <0>        -0.6034
     15 C11         1.6614    9.1879    3.5604 C.3       1 <0>         0.0960
     16 C12         2.3269    7.8248    3.7412 C.3       1 <0>        -0.1342
     17 C13         2.2412    7.4087    5.2115 C.3       1 <0>        -0.0930
     18 C14         0.7726    7.2899    5.6250 C.3       1 <0>        -0.1323
     19 C15         0.0900    8.6522    5.4674 C.3       1 <0>         0.1099
     20 C16         2.9349    6.0582    5.4002 C.3       1 <0>        -0.1497
     21 N2         -1.8374    9.8638    1.1890 N.pl3     1 <0>        -1.0978
     22 S1         -1.9333    9.3694   -0.3886 S.o2      1 <0>         2.6827
     23 O2         -0.9016   10.0491   -1.0906 O.2       1 <0>        -0.9355
     24 O3         -3.3009    9.4668   -0.7623 O.2       1 <0>        -0.9458
     25 C17        -1.5224    7.6564   -0.4237 C.ar      1 <0>        -0.6746
     26 C18        -2.5184    6.7080   -0.2791 C.ar      1 <0>         0.0060
     27 C19        -2.2105    5.3590   -0.3046 C.ar      1 <0>        -0.0859
     28 C20        -0.8905    4.9519   -0.4763 C.ar      1 <0>        -0.0550
     29 C21         0.1224    5.9162   -0.6229 C.ar      1 <0>        -0.1359
     30 C22        -0.2049    7.2688   -0.5953 C.ar      1 <0>         0.0215
     31 C23         1.5264    5.4926   -0.8068 C.2       1 <0>         0.4392
     32 O4          2.4017    6.3258   -0.9334 O.2       1 <0>        -0.4243
     33 C24         1.8644    4.0541   -0.8355 C.ar      1 <0>        -0.1251
     34 C25         3.1840    3.6462   -1.0079 C.ar      1 <0>        -0.0641
     35 C26         3.4913    2.2969   -1.0340 C.ar      1 <0>        -0.0932
     36 C27         2.4949    1.3487   -0.8903 C.ar      1 <0>        -0.0918
     37 C28         1.1770    1.7368   -0.7233 C.ar      1 <0>        -0.0637
     38 C29         0.8513    3.0898   -0.6889 C.ar      1 <0>        -0.1237
     39 C30        -0.5528    3.5133   -0.5053 C.2       1 <0>         0.4267
     40 O5         -1.4279    2.6801   -0.3780 O.2       1 <0>        -0.4082
     41 N3         -1.4653   13.6938   -3.7147 N.pl3     1 <0>        -0.7820
     42 H3          0.7594   12.5656   -3.3610 H         1 <0>         0.1303
     43 H4          2.5364   11.3706   -2.1509 H         1 <0>         0.1425
     44 H5          2.2317   10.7738    0.2164 H         1 <0>         0.1384
     45 H6         -1.6471   12.5433    0.1863 H         1 <0>         0.1233
     46 H7         -0.5567   11.9729    2.2762 H         1 <0>         0.0998
     47 H8          1.0610   11.2306    2.2869 H         1 <0>         0.1069
     48 H9          1.6309    9.4404    2.5005 H         1 <0>         0.0831
     49 H10         2.2302    9.9438    4.1019 H         1 <0>         0.0829
     50 H11         3.3729    7.8866    3.4410 H         1 <0>         0.0833
     51 H12         1.8137    7.0875    3.1239 H         1 <0>         0.0664
     52 H13         2.7331    8.1593    5.8303 H         1 <0>         0.0765
     53 H14         0.7122    6.9709    6.6655 H         1 <0>         0.0819
     54 H15         0.2739    6.5575    4.9900 H         1 <0>         0.0666
     55 H16         0.5280    9.3635    6.1677 H         1 <0>         0.0754
     56 H17        -0.9772    8.5514    5.6654 H         1 <0>         0.0959
     57 H18         2.4428    5.3074    4.7819 H         1 <0>         0.0537
     58 H19         3.9809    6.1426    5.1058 H         1 <0>         0.0584
     59 H20         2.8750    5.7622    6.4476 H         1 <0>         0.0594
     60 H21        -2.6357   10.1591    1.6542 H         1 <0>         0.4322
     61 H22        -3.5432    7.0220   -0.1458 H         1 <0>         0.1564
     62 H23        -2.9930    4.6233   -0.1911 H         1 <0>         0.1595
     63 H24         0.5680    8.0148   -0.7072 H         1 <0>         0.1597
     64 H25         3.9671    4.3814   -1.1207 H         1 <0>         0.1464
     65 H26         4.5157    1.9825   -1.1678 H         1 <0>         0.1432
     66 H27         2.7462    0.2986   -0.9130 H         1 <0>         0.1436
     67 H28         0.4031    0.9913   -0.6156 H         1 <0>         0.1469
     68 H29        -0.6424   13.4623   -4.1730 H         1 <0>         0.4428
     69 H30        -2.1684   14.1651   -4.1885 H         1 <0>         0.4298
     70 N4         -2.7340   13.6401   -1.7089 N.pl3     1 <0>        -0.7652
     71 H31        -2.8129   13.3646   -0.7229 H         1 <0>         0.4570
@<TRIPOS>BOND
     1    1   70 1
     2    2    3 1
     3    2   41 1
     4    2   70 2
     5    3    8 ar
     6    3    4 ar
     7    4    5 ar
     8    4   42 1
     9    5    6 ar
    10    5   43 1
    11    6    7 ar
    12    6   44 1
    13    7    8 ar
    14    7    9 1
    15    8   45 1
    16    9   10 1
    17    9   46 1
    18    9   47 1
    19   10   11 1
    20   10   12 1
    21   10   21 1
    22   12   13 2
    23   12   14 am
    24   14   19 1
    25   14   15 1
    26   15   16 1
    27   15   48 1
    28   15   49 1
    29   16   17 1
    30   16   50 1
    31   16   51 1
    32   17   18 1
    33   17   20 1
    34   17   52 1
    35   18   19 1
    36   18   53 1
    37   18   54 1
    38   19   55 1
    39   19   56 1
    40   20   57 1
    41   20   58 1
    42   20   59 1
    43   21   22 1
    44   21   60 1
    45   22   23 2
    46   22   24 2
    47   22   25 1
    48   25   30 ar
    49   25   26 ar
    50   26   27 ar
    51   26   61 1
    52   27   28 ar
    53   27   62 1
    54   28   39 1
    55   28   29 ar
    56   29   30 ar
    57   29   31 1
    58   30   63 1
    59   31   32 2
    60   31   33 1
    61   33   38 ar
    62   33   34 ar
    63   34   35 ar
    64   34   64 1
    65   35   36 ar
    66   35   65 1
    67   36   37 ar
    68   36   66 1
    69   37   38 ar
    70   37   67 1
    71   38   39 1
    72   39   40 2
    73   41   68 1
    74   41   69 1
    75   70   71 1
@<TRIPOS>MOLECULE
ZINC03834126
   62    64     0     0     0
SMALL
USER_CHARGES

@<TRIPOS>ATOM
      1 H1         -2.0294    3.2254   -0.3442 H         1 <0>         0.4458
      2 C1         -0.3904    2.0293   -0.1776 C.cat     1 <0>         0.5988
      3 C2          0.0300    0.6138   -0.0658 C.ar      1 <0>        -0.1533
      4 C3          1.3841    0.2902    0.0190 C.ar      1 <0>        -0.0555
      5 C4          1.7692   -1.0301    0.1296 C.ar      1 <0>        -0.1039
      6 C5          0.8160   -2.0328    0.1438 C.ar      1 <0>        -0.0463
      7 C6         -0.5280   -1.7185    0.0540 C.ar      1 <0>        -0.0723
      8 C7         -0.9260   -0.4011   -0.0505 C.ar      1 <0>        -0.0603
      9 C8         -1.5598   -2.8167    0.0706 C.3       1 <0>        -0.0871
     10 C9         -1.8348   -3.2800   -1.3614 C.3       1 <0>         0.1356
     11 H2         -0.8968   -3.5663   -1.8371 H         1 <0>         0.1202
     12 C10        -2.7671   -4.4637   -1.3362 C.2       1 <0>         0.4951
     13 O1         -3.9544   -4.3047   -1.5262 O.2       1 <0>        -0.5125
     14 N1         -2.2816   -5.6990   -1.1024 N.am      1 <0>        -0.6042
     15 C11        -0.8647   -5.8954   -0.7670 C.3       1 <0>         0.0969
     16 C12        -0.2641   -6.9222   -1.7255 C.3       1 <0>        -0.1351
     17 C13        -1.1023   -8.2021   -1.6889 C.3       1 <0>        -0.0921
     18 C14        -2.5304   -7.8920   -2.1434 C.3       1 <0>        -0.1321
     19 C15        -3.1578   -6.8756   -1.1841 C.3       1 <0>         0.1113
     20 C16        -0.4843   -9.2430   -2.6246 C.3       1 <0>        -0.1495
     21 N2         -2.4525   -2.1879   -2.1178 N.pl3     1 <0>        -1.0971
     22 S1         -2.1053   -1.9942   -3.7254 S.o2      1 <0>         2.6885
     23 O2         -2.8685   -0.8829   -4.1747 O.2       1 <0>        -0.9535
     24 O3         -0.6901   -2.0444   -3.8441 O.2       1 <0>        -0.9520
     25 C17        -2.7319   -3.4092   -4.5678 C.ar      1 <0>        -0.6860
     26 C18        -1.9288   -4.5204   -4.7444 C.ar      1 <0>        -0.0188
     27 C19        -2.4219   -5.6321   -5.4016 C.ar      1 <0>        -0.1386
     28 C20        -3.7149   -5.6291   -5.8905 C.ar      1 <0>        -0.0167
     29 C21        -4.5164   -4.5160   -5.7181 C.ar      1 <0>        -0.1375
     30 C22        -4.0248   -3.4060   -5.0572 C.ar      1 <0>        -0.0016
     31 C23        -4.2509   -6.8392   -6.6110 C.3       1 <0>        -0.1292
     32 N3          0.5565    3.0301   -0.1924 N.pl3     1 <0>        -0.7789
     33 H3          2.1292    1.0718    0.0031 H         1 <0>         0.1396
     34 H4          2.8171   -1.2816    0.2005 H         1 <0>         0.1519
     35 H5          1.1226   -3.0651    0.2257 H         1 <0>         0.1479
     36 H6         -1.9757   -0.1569   -0.1198 H         1 <0>         0.1339
     37 H7         -1.1880   -3.6557    0.6588 H         1 <0>         0.1083
     38 H8         -2.4821   -2.4421    0.5148 H         1 <0>         0.1020
     39 H9         -0.3314   -4.9499   -0.8657 H         1 <0>         0.0810
     40 H10        -0.7786   -6.2607    0.2563 H         1 <0>         0.0804
     41 H11         0.7587   -7.1483   -1.4241 H         1 <0>         0.0823
     42 H12        -0.2646   -6.5158   -2.7370 H         1 <0>         0.0690
     43 H13        -1.1219   -8.5942   -0.6720 H         1 <0>         0.0748
     44 H14        -3.1206   -8.8083   -2.1394 H         1 <0>         0.0789
     45 H15        -2.5094   -7.4765   -3.1508 H         1 <0>         0.0689
     46 H16        -3.2625   -7.3225   -0.1955 H         1 <0>         0.0721
     47 H17        -4.1371   -6.5766   -1.5579 H         1 <0>         0.0935
     48 H18        -0.4652   -8.8514   -3.6417 H         1 <0>         0.0545
     49 H19         0.5327   -9.4641   -2.3011 H         1 <0>         0.0580
     50 H20        -1.0805  -10.1552   -2.5978 H         1 <0>         0.0583
     51 H21        -3.0647   -1.5783   -1.6770 H         1 <0>         0.4203
     52 H22        -0.9173   -4.5212   -4.3660 H         1 <0>         0.1331
     53 H23        -1.7958   -6.5019   -5.5359 H         1 <0>         0.1323
     54 H24        -5.5266   -4.5136   -6.1002 H         1 <0>         0.1348
     55 H25        -4.6509   -2.5362   -4.9229 H         1 <0>         0.1380
     56 H26        -4.0421   -6.7495   -7.6771 H         1 <0>         0.0831
     57 H27        -3.7705   -7.7366   -6.2210 H         1 <0>         0.0744
     58 H28        -5.3277   -6.9070   -6.4561 H         1 <0>         0.0755
     59 H29         1.4985    2.8075   -0.1296 H         1 <0>         0.4432
     60 H30         0.2811    3.9573   -0.2657 H         1 <0>         0.4321
     61 N4         -1.6901    2.2666   -0.2654 N.pl3     1 <0>        -0.7592
     62 H31        -2.3565    1.4855   -0.2542 H         1 <0>         0.4592
@<TRIPOS>BOND
     1    1   61 1
     2    2    3 1
     3    2   32 1
     4    2   61 2
     5    3    8 ar
     6    3    4 ar
     7    4    5 ar
     8    4   33 1
     9    5    6 ar
    10    5   34 1
    11    6    7 ar
    12    6   35 1
    13    7    8 ar
    14    7    9 1
    15    8   36 1
    16    9   10 1
    17    9   37 1
    18    9   38 1
    19   10   11 1
    20   10   12 1
    21   10   21 1
    22   12   13 2
    23   12   14 am
    24   14   19 1
    25   14   15 1
    26   15   16 1
    27   15   39 1
    28   15   40 1
    29   16   17 1
    30   16   41 1
    31   16   42 1
    32   17   18 1
    33   17   20 1
    34   17   43 1
    35   18   19 1
    36   18   44 1
    37   18   45 1
    38   19   46 1
    39   19   47 1
    40   20   48 1
    41   20   49 1
    42   20   50 1
    43   21   22 1
    44   21   51 1
    45   22   23 2
    46   22   24 2
    47   22   25 1
    48   25   30 ar
    49   25   26 ar
    50   26   27 ar
    51   26   52 1
    52   27   28 ar
    53   27   53 1
    54   28   29 ar
    55   28   31 1
    56   29   30 ar
    57   29   54 1
    58   30   55 1
    59   31   56 1
    60   31   57 1
    61   31   58 1
    62   32   59 1
    63   32   60 1
    64   61   62 1
@<TRIPOS>MOLECULE
ZINC03834127
   74    76     0     0     0
SMALL
USER_CHARGES

@<TRIPOS>ATOM
      1 H1         -3.1339    0.3870   -4.2976 H         1 <0>         0.4425
      2 C1         -4.7748    0.3201   -3.0945 C.cat     1 <0>         0.5995
      3 C2         -5.5504    1.1122   -2.1126 C.ar      1 <0>        -0.1454
      4 C3         -6.6929    0.5716   -1.5228 C.ar      1 <0>        -0.0382
      5 C4         -7.4112    1.3146   -0.6088 C.ar      1 <0>        -0.0911
      6 C5         -7.0006    2.5936   -0.2772 C.ar      1 <0>        -0.0250
      7 C6         -5.8681    3.1349   -0.8584 C.ar      1 <0>        -0.0641
      8 C7         -5.1441    2.4035   -1.7780 C.ar      1 <0>        -0.0518
      9 C8         -5.4275    4.5285   -0.4913 C.3       1 <0>        -0.1031
     10 C9         -4.4729    4.4637    0.7026 C.3       1 <0>         0.1431
     11 H2         -3.5896    3.8857    0.4306 H         1 <0>         0.1063
     12 C10        -4.0595    5.8598    1.0916 C.2       1 <0>         0.5152
     13 O1         -4.6599    6.4485    1.9655 O.2       1 <0>        -0.5104
     14 N1         -3.0227    6.4539    0.4684 N.am      1 <0>        -0.6059
     15 C11        -2.3542    5.7967   -0.6635 C.3       1 <0>         0.0804
     16 C12        -2.3745    6.7580   -1.8640 C.3       1 <0>         0.1037
     17 N2         -1.8882    8.0719   -1.4200 N.pl3     1 <0>        -1.0007
     18 C13        -2.5532    8.7265   -0.2845 C.3       1 <0>         0.1052
     19 C14        -2.5364    7.7677    0.9124 C.3       1 <0>         0.0934
     20 S1         -0.6142    8.8020   -2.1857 S.o2      1 <0>         2.6069
     21 O2         -0.6307    8.2709   -3.5036 O.2       1 <0>        -0.9509
     22 O3         -0.8054   10.1923   -1.9626 O.2       1 <0>        -0.9441
     23 C15         0.8575    8.2231   -1.2972 C.3       1 <0>        -0.6734
     24 N3         -5.1478    3.8213    1.8331 N.pl3     1 <0>        -1.1021
     25 S2         -4.9572    2.1977    2.0973 S.o2      1 <0>         2.6924
     26 O4         -5.1875    1.5538    0.8517 O.2       1 <0>        -0.9468
     27 O5         -5.7036    1.8860    3.2655 O.2       1 <0>        -0.9445
     28 C16        -3.2620    1.9303    2.4966 C.ar      1 <0>        -0.7267
     29 C17        -2.8081    2.1746    3.7798 C.ar      1 <0>         0.0718
     30 C18        -1.4798    1.9658    4.0954 C.ar      1 <0>        -0.2351
     31 C19        -0.6004    1.5105    3.1235 C.ar      1 <0>         0.1984
     32 C20        -1.0580    1.2661    1.8370 C.ar      1 <0>        -0.1507
     33 C21        -2.3867    1.4816    1.5251 C.ar      1 <0>         0.0504
     34 C22        -2.8833    1.2218    0.1262 C.3       1 <0>        -0.1595
     35 C23        -0.1055    0.7720    0.7789 C.3       1 <0>        -0.1056
     36 O6          0.7072    1.3047    3.4313 O.3       1 <0>        -0.3055
     37 C24         1.1078    1.5771    4.7757 C.3       1 <0>         0.0200
     38 C25        -3.7638    2.6696    4.8347 C.3       1 <0>        -0.1924
     39 N4         -5.1815   -0.9537   -3.4270 N.pl3     1 <0>        -0.7827
     40 H3         -7.0147   -0.4263   -1.7814 H         1 <0>         0.1299
     41 H4         -8.2960    0.8972   -0.1514 H         1 <0>         0.1412
     42 H5         -7.5663    3.1715    0.4386 H         1 <0>         0.1354
     43 H6         -4.2627    2.8289   -2.2344 H         1 <0>         0.1262
     44 H7         -6.2991    5.1275   -0.2276 H         1 <0>         0.1050
     45 H8         -4.9172    4.9837   -1.3402 H         1 <0>         0.0997
     46 H9         -1.3237    5.5642   -0.3949 H         1 <0>         0.0838
     47 H10        -2.8842    4.8791   -0.9187 H         1 <0>         0.0925
     48 H11        -3.3923    6.8533   -2.2422 H         1 <0>         0.0844
     49 H12        -1.7259    6.3750   -2.6518 H         1 <0>         0.1078
     50 H13        -3.5837    8.9620   -0.5503 H         1 <0>         0.0853
     51 H14        -2.0234    9.6435   -0.0263 H         1 <0>         0.1100
     52 H15        -3.1868    8.1522    1.6981 H         1 <0>         0.1120
     53 H16        -1.5197    7.6719    1.2934 H         1 <0>         0.0781
     54 H17         0.9171    7.1366   -1.3619 H         1 <0>         0.1257
     55 H18         1.7486    8.6630   -1.7448 H         1 <0>         0.1327
     56 H19         0.7911    8.5216   -0.2510 H         1 <0>         0.1286
     57 H20        -5.7063    4.3470    2.4269 H         1 <0>         0.4321
     58 H21        -1.1260    2.1565    5.0978 H         1 <0>         0.1401
     59 H22        -3.2210    0.1885    0.0466 H         1 <0>         0.0901
     60 H23        -3.7129    1.8932   -0.0954 H         1 <0>         0.1065
     61 H24        -2.0753    1.3958   -0.5844 H         1 <0>         0.0700
     62 H25        -0.0899   -0.3178    0.7844 H         1 <0>         0.0704
     63 H26         0.8955    1.1508    0.9856 H         1 <0>         0.0732
     64 H27        -0.4331    1.1259   -0.1987 H         1 <0>         0.0670
     65 H28         0.5428    0.9430    5.4588 H         1 <0>         0.0632
     66 H29         2.1726    1.3720    4.8862 H         1 <0>         0.1100
     67 H30         0.9137    2.6243    5.0075 H         1 <0>         0.0619
     68 H31        -3.8937    3.7468    4.7306 H         1 <0>         0.0856
     69 H32        -4.7270    2.1741    4.7138 H         1 <0>         0.1322
     70 H33        -3.3617    2.4460    5.8229 H         1 <0>         0.0831
     71 H34        -5.9758   -1.3315   -3.0181 H         1 <0>         0.4429
     72 H35        -4.6736   -1.4726   -4.0702 H         1 <0>         0.4294
     73 N5         -3.7010    0.8923   -3.6166 N.pl3     1 <0>        -0.7664
     74 H36        -3.4391    1.8447   -3.3362 H         1 <0>         0.4567
@<TRIPOS>BOND
     1    1   73 1
     2    2    3 1
     3    2   39 1
     4    2   73 2
     5    3    8 ar
     6    3    4 ar
     7    4    5 ar
     8    4   40 1
     9    5    6 ar
    10    5   41 1
    11    6    7 ar
    12    6   42 1
    13    7    8 ar
    14    7    9 1
    15    8   43 1
    16    9   10 1
    17    9   44 1
    18    9   45 1
    19   10   11 1
    20   10   12 1
    21   10   24 1
    22   12   13 2
    23   12   14 am
    24   14   19 1
    25   14   15 1
    26   15   16 1
    27   15   46 1
    28   15   47 1
    29   16   17 1
    30   16   48 1
    31   16   49 1
    32   17   18 1
    33   17   20 1
    34   18   19 1
    35   18   50 1
    36   18   51 1
    37   19   52 1
    38   19   53 1
    39   20   21 2
    40   20   22 2
    41   20   23 1
    42   23   54 1
    43   23   55 1
    44   23   56 1
    45   24   25 1
    46   24   57 1
    47   25   26 2
    48   25   27 2
    49   25   28 1
    50   28   33 ar
    51   28   29 ar
    52   29   30 ar
    53   29   38 1
    54   30   31 ar
    55   30   58 1
    56   31   32 ar
    57   31   36 1
    58   32   33 ar
    59   32   35 1
    60   33   34 1
    61   34   59 1
    62   34   60 1
    63   34   61 1
    64   35   62 1
    65   35   63 1
    66   35   64 1
    67   36   37 1
    68   37   65 1
    69   37   66 1
    70   37   67 1
    71   38   68 1
    72   38   69 1
    73   38   70 1
    74   39   71 1
    75   39   72 1
    76   73   74 1
@<TRIPOS>MOLECULE
ZINC03834128
   73    76     0     0     0
SMALL
USER_CHARGES

@<TRIPOS>ATOM
      1 H1          2.6084   -1.7259   -0.0275 H         1 <0>         0.4434
      2 C1          0.8445   -0.7092   -0.0205 C.cat     1 <0>         0.5964
      3 C2          0.2701    0.6556   -0.0157 C.ar      1 <0>        -0.1381
      4 C3         -1.1134    0.8330   -0.0175 C.ar      1 <0>        -0.0417
      5 C4         -1.6426    2.1071   -0.0072 C.ar      1 <0>        -0.0983
      6 C5         -0.8040    3.2076   -0.0072 C.ar      1 <0>        -0.0352
      7 C6          0.5688    3.0381   -0.0111 C.ar      1 <0>        -0.0615
      8 C7          1.1100    1.7686   -0.0152 C.ar      1 <0>        -0.0409
      9 C8          1.4752    4.2420   -0.0107 C.3       1 <0>        -0.1021
     10 C9          1.7786    4.6526   -1.4529 C.3       1 <0>         0.1440
     11 H2          0.8505    4.9221   -1.9570 H         1 <0>         0.1099
     12 C10         2.7119    5.8358   -1.4526 C.2       1 <0>         0.5136
     13 O1          3.8942    5.6756   -1.6704 O.2       1 <0>        -0.5219
     14 N1          2.2328    7.0720   -1.2104 N.am      1 <0>        -0.6040
     15 C11         0.8269    7.2691   -0.8318 C.3       1 <0>         0.0975
     16 C12         0.1957    8.2903   -1.7764 C.3       1 <0>        -0.1344
     17 C13         1.0333    9.5710   -1.7730 C.3       1 <0>        -0.0930
     18 C14         2.4468    9.2596   -2.2702 C.3       1 <0>        -0.1316
     19 C15         3.1049    8.2488   -1.3257 C.3       1 <0>         0.1099
     20 C16         0.3855   10.6064   -2.6944 C.3       1 <0>        -0.1496
     21 N2          2.4093    3.5333   -2.1570 N.pl3     1 <0>        -1.1025
     22 S1          1.4862    2.4995   -3.0632 S.o2      1 <0>         2.6860
     23 O2          2.3786    1.5512   -3.6325 O.2       1 <0>        -0.9578
     24 O3          0.3863    2.1171   -2.2488 O.2       1 <0>        -0.9466
     25 C17         0.8214    3.4323   -4.4021 C.ar      1 <0>        -0.7186
     26 C18        -0.4001    4.0658   -4.2643 C.ar      1 <0>         0.0044
     27 C19        -0.9178    4.7992   -5.3119 C.ar      1 <0>        -0.1680
     28 C20        -0.2201    4.8948   -6.5119 C.ar      1 <0>         0.2035
     29 C21         1.0009    4.2582   -6.6476 C.ar      1 <0>        -0.1752
     30 C22         1.5174    3.5262   -5.5911 C.ar      1 <0>         0.0198
     31 C23         1.7951    4.3461   -7.9262 C.3       1 <0>        -0.0847
     32 C24         0.8846    4.8038   -9.0683 C.3       1 <0>        -0.1505
     33 C25         0.0897    6.0259   -8.5910 C.3       1 <0>         0.1100
     34 O4         -0.7674    5.6169   -7.5241 O.3       1 <0>        -0.2993
     35 C26        -0.7506    6.5769   -9.7447 C.3       1 <0>        -0.1418
     36 C27         1.0527    7.1057   -8.0933 C.3       1 <0>        -0.1776
     37 N3          0.0119   -1.8072   -0.0210 N.pl3     1 <0>        -0.7825
     38 H3         -1.7690   -0.0251   -0.0223 H         1 <0>         0.1296
     39 H4         -2.7136    2.2458   -0.0038 H         1 <0>         0.1414
     40 H5         -1.2229    4.2030   -0.0037 H         1 <0>         0.1372
     41 H6          2.1821    1.6374   -0.0176 H         1 <0>         0.1225
     42 H7          0.9838    5.0665    0.5061 H         1 <0>         0.1044
     43 H8          2.4059    3.9959    0.5005 H         1 <0>         0.0980
     44 H9          0.2916    6.3226   -0.9087 H         1 <0>         0.0825
     45 H10         0.7725    7.6398    0.1917 H         1 <0>         0.0814
     46 H11        -0.8175    8.5172   -1.4445 H         1 <0>         0.0824
     47 H12         0.1647    7.8786   -2.7853 H         1 <0>         0.0686
     48 H13         1.0844    9.9685   -0.7592 H         1 <0>         0.0757
     49 H14         3.0360   10.1764   -2.2896 H         1 <0>         0.0809
     50 H15         2.3947    8.8387   -3.2743 H         1 <0>         0.0666
     51 H16         3.2402    8.7011   -0.3432 H         1 <0>         0.0745
     52 H17         4.0723    7.9486   -1.7284 H         1 <0>         0.0952
     53 H18         0.3348   10.2093   -3.7082 H         1 <0>         0.0541
     54 H19        -0.6213   10.8284   -2.3404 H         1 <0>         0.0582
     55 H20         0.9813   11.5191   -2.6911 H         1 <0>         0.0588
     56 H21         3.3676    3.3977   -2.0921 H         1 <0>         0.4291
     57 H22        -0.9465    3.9898   -3.3357 H         1 <0>         0.1437
     58 H23        -1.8700    5.2968   -5.2018 H         1 <0>         0.1429
     59 H24         2.4687    3.0262   -5.6980 H         1 <0>         0.1398
     60 H25         2.6069    5.0624   -7.8002 H         1 <0>         0.0865
     61 H26         2.2101    3.3665   -8.1634 H         1 <0>         0.0886
     62 H27         0.1980    4.0003   -9.3352 H         1 <0>         0.0808
     63 H28         1.4884    5.0737   -9.9346 H         1 <0>         0.0934
     64 H29        -1.3285    7.4331   -9.3968 H         1 <0>         0.0714
     65 H30        -0.0934    6.8879  -10.5568 H         1 <0>         0.0841
     66 H31        -1.4287    5.8021  -10.1026 H         1 <0>         0.0696
     67 H32         1.6559    6.7068   -7.2779 H         1 <0>         0.0633
     68 H33         1.7049    7.4152   -8.9100 H         1 <0>         0.0799
     69 H34         0.4833    7.9645   -7.7377 H         1 <0>         0.0699
     70 H35        -0.9504   -1.6860   -0.0181 H         1 <0>         0.4426
     71 H36         0.3882   -2.7011   -0.0241 H         1 <0>         0.4296
     72 N4          2.1650   -0.8071   -0.0242 N.pl3     1 <0>        -0.7651
     73 H37         2.7427    0.0417   -0.0236 H         1 <0>         0.4571
@<TRIPOS>BOND
     1    1   72 1
     2    2    3 1
     3    2   37 1
     4    2   72 2
     5    3    8 ar
     6    3    4 ar
     7    4    5 ar
     8    4   38 1
     9    5    6 ar
    10    5   39 1
    11    6    7 ar
    12    6   40 1
    13    7    8 ar
    14    7    9 1
    15    8   41 1
    16    9   10 1
    17    9   42 1
    18    9   43 1
    19   10   11 1
    20   10   12 1
    21   10   21 1
    22   12   13 2
    23   12   14 am
    24   14   19 1
    25   14   15 1
    26   15   16 1
    27   15   44 1
    28   15   45 1
    29   16   17 1
    30   16   46 1
    31   16   47 1
    32   17   18 1
    33   17   20 1
    34   17   48 1
    35   18   19 1
    36   18   49 1
    37   18   50 1
    38   19   51 1
    39   19   52 1
    40   20   53 1
    41   20   54 1
    42   20   55 1
    43   21   22 1
    44   21   56 1
    45   22   23 2
    46   22   24 2
    47   22   25 1
    48   25   30 ar
    49   25   26 ar
    50   26   27 ar
    51   26   57 1
    52   27   28 ar
    53   27   58 1
    54   28   34 1
    55   28   29 ar
    56   29   30 ar
    57   29   31 1
    58   30   59 1
    59   31   32 1
    60   31   60 1
    61   31   61 1
    62   32   33 1
    63   32   62 1
    64   32   63 1
    65   33   34 1
    66   33   35 1
    67   33   36 1
    68   35   64 1
    69   35   65 1
    70   35   66 1
    71   36   67 1
    72   36   68 1
    73   36   69 1
    74   37   70 1
    75   37   71 1
    76   72   73 1
@<TRIPOS>MOLECULE
ZINC03834129
   66    70     0     0     0
SMALL
USER_CHARGES

@<TRIPOS>ATOM
      1 H1         -1.4717    3.0476    0.0255 H         1 <0>         0.4434
      2 C1          0.0746    1.7234    0.0111 C.cat     1 <0>         0.5980
      3 C2          0.3877    0.2760    0.0017 C.ar      1 <0>        -0.1361
      4 C3          1.7145   -0.1532   -0.0185 C.ar      1 <0>        -0.0434
      5 C4          2.0000   -1.5031   -0.0213 C.ar      1 <0>        -0.1076
      6 C5          0.9729   -2.4301   -0.0162 C.ar      1 <0>        -0.0424
      7 C6         -0.3450   -2.0105   -0.0014 C.ar      1 <0>        -0.0744
      8 C7         -0.6430   -0.6631    0.0073 C.ar      1 <0>        -0.0104
      9 C8         -1.4577   -3.0269    0.0046 C.3       1 <0>        -0.1124
     10 C9         -1.8479   -3.3645   -1.4358 C.3       1 <0>         0.1437
     11 H2         -0.9643   -3.6906   -1.9846 H         1 <0>         0.1145
     12 C10        -2.8734   -4.4688   -1.4327 C.2       1 <0>         0.5172
     13 O1         -3.9677   -4.2815   -1.9209 O.2       1 <0>        -0.5156
     14 N1         -2.5744   -5.6645   -0.8876 N.am      1 <0>        -0.6065
     15 C11        -3.5558   -6.7619   -0.8631 C.3       1 <0>         0.1115
     16 C12        -3.0014   -7.8997   -1.7275 C.3       1 <0>        -0.1003
     17 C13        -1.5634   -8.1831   -1.3813 C.ar      1 <0>        -0.0659
     18 C14        -1.0437   -9.4185   -1.7492 C.ar      1 <0>        -0.1170
     19 C15         0.2693   -9.7376   -1.4738 C.ar      1 <0>        -0.1096
     20 C16         1.0781   -8.8222   -0.8257 C.ar      1 <0>        -0.1175
     21 C17         0.5637   -7.5968   -0.4556 C.ar      1 <0>        -0.1126
     22 C18        -0.7589   -7.2757   -0.7296 C.ar      1 <0>        -0.1090
     23 C19        -1.2602   -5.9231   -0.2894 C.3       1 <0>         0.1431
     24 N2         -2.4121   -2.1760   -2.0803 N.pl3     1 <0>        -1.0987
     25 S1         -1.4432   -1.1899   -2.9921 S.o2      1 <0>         2.6782
     26 O2         -2.2766   -0.1554   -3.4966 O.2       1 <0>        -0.9545
     27 O3         -0.2858   -0.9235   -2.2119 O.2       1 <0>        -0.9431
     28 C20        -0.9074   -2.1285   -4.3838 C.ar      1 <0>        -0.6819
     29 C21         0.2740   -2.8636   -4.3022 C.ar      1 <0>        -0.0558
     30 C22         0.7131   -3.6034   -5.3567 C.ar      1 <0>        -0.1093
     31 C23        -0.0272   -3.6192   -6.5513 C.ar      1 <0>        -0.0099
     32 C24         0.3980   -4.3658   -7.6635 C.ar      1 <0>        -0.1213
     33 C25        -0.3447   -4.3575   -8.8039 C.ar      1 <0>        -0.0855
     34 C26        -1.5233   -3.6180   -8.8872 C.ar      1 <0>        -0.1152
     35 C27        -1.9656   -2.8832   -7.8307 C.ar      1 <0>        -0.0916
     36 C28        -1.2255   -2.8674   -6.6361 C.ar      1 <0>        -0.0790
     37 C29        -1.6503   -2.1203   -5.5240 C.ar      1 <0>         0.0273
     38 N3          1.0952    2.6490    0.0055 N.pl3     1 <0>        -0.7827
     39 H3          2.5171    0.5695   -0.0274 H         1 <0>         0.1300
     40 H4          3.0270   -1.8367   -0.0324 H         1 <0>         0.1418
     41 H5          1.2012   -3.4857   -0.0232 H         1 <0>         0.1371
     42 H6         -1.6725   -0.3366    0.0187 H         1 <0>         0.1197
     43 H7         -1.1210   -3.9313    0.5113 H         1 <0>         0.1097
     44 H8         -2.3213   -2.6171    0.5284 H         1 <0>         0.0993
     45 H9         -3.6960   -7.1085    0.1607 H         1 <0>         0.0825
     46 H10        -4.5061   -6.4159   -1.2697 H         1 <0>         0.1031
     47 H11        -3.0686   -7.6195   -2.7787 H         1 <0>         0.0824
     48 H12        -3.5948   -8.7981   -1.5575 H         1 <0>         0.0920
     49 H13        -1.6737  -10.1349   -2.2555 H         1 <0>         0.1246
     50 H14         0.6648  -10.7000   -1.7631 H         1 <0>         0.1262
     51 H15         2.1081   -9.0654   -0.6106 H         1 <0>         0.1268
     52 H16         1.1948   -6.8818    0.0511 H         1 <0>         0.1241
     53 H17        -0.5579   -5.1539   -0.6104 H         1 <0>         0.0935
     54 H18        -1.3463   -5.9042    0.7971 H         1 <0>         0.0912
     55 H19        -3.3530   -1.9666   -1.9729 H         1 <0>         0.4299
     56 H20         0.8472   -2.8495   -3.3870 H         1 <0>         0.1367
     57 H21         1.6284   -4.1711   -5.2778 H         1 <0>         0.1375
     58 H22         1.3092   -4.9434   -7.6134 H         1 <0>         0.1354
     59 H23        -0.0160   -4.9322   -9.6569 H         1 <0>         0.1331
     60 H24        -2.0937   -3.6281   -9.8042 H         1 <0>         0.1334
     61 H25        -2.8805   -2.3148   -7.9099 H         1 <0>         0.1357
     62 H26        -2.5613   -1.5424   -5.5742 H         1 <0>         0.1441
     63 H27         2.0187    2.3526   -0.0046 H         1 <0>         0.4425
     64 H28         0.8902    3.5971    0.0116 H         1 <0>         0.4295
     65 N4         -1.2052    2.0629    0.0190 N.pl3     1 <0>        -0.7661
     66 H29        -1.9294    1.3350    0.0185 H         1 <0>         0.4562
@<TRIPOS>BOND
     1    1   65 1
     2    2    3 1
     3    2   38 1
     4    2   65 2
     5    3    8 ar
     6    3    4 ar
     7    4    5 ar
     8    4   39 1
     9    5    6 ar
    10    5   40 1
    11    6    7 ar
    12    6   41 1
    13    7    8 ar
    14    7    9 1
    15    8   42 1
    16    9   10 1
    17    9   43 1
    18    9   44 1
    19   10   11 1
    20   10   12 1
    21   10   24 1
    22   12   13 2
    23   12   14 am
    24   14   23 1
    25   14   15 1
    26   15   16 1
    27   15   45 1
    28   15   46 1
    29   16   17 1
    30   16   47 1
    31   16   48 1
    32   17   22 ar
    33   17   18 ar
    34   18   19 ar
    35   18   49 1
    36   19   20 ar
    37   19   50 1
    38   20   21 ar
    39   20   51 1
    40   21   22 ar
    41   21   52 1
    42   22   23 1
    43   23   53 1
    44   23   54 1
    45   24   25 1
    46   24   55 1
    47   25   26 2
    48   25   27 2
    49   25   28 1
    50   28   37 ar
    51   28   29 ar
    52   29   30 ar
    53   29   56 1
    54   30   31 ar
    55   30   57 1
    56   31   36 ar
    57   31   32 ar
    58   32   33 ar
    59   32   58 1
    60   33   34 ar
    61   33   59 1
    62   34   35 ar
    63   34   60 1
    64   35   36 ar
    65   35   61 1
    66   36   37 ar
    67   37   62 1
    68   38   63 1
    69   38   64 1
    70   65   66 1
@<TRIPOS>MOLECULE
ZINC03834130
   63    66     0     0     0
SMALL
USER_CHARGES

@<TRIPOS>ATOM
      1 H1          2.2471    7.4776    2.8601 H         1 <0>         0.4418
      2 C1          0.5681    6.4613    3.4011 C.cat     1 <0>         0.6005
      3 C2         -0.0783    5.1307    3.3330 C.ar      1 <0>        -0.1459
      4 C3         -1.3356    4.9331    3.9038 C.ar      1 <0>        -0.0401
      5 C4         -1.9327    3.6911    3.8372 C.ar      1 <0>        -0.0927
      6 C5         -1.2868    2.6427    3.2062 C.ar      1 <0>        -0.0263
      7 C6         -0.0401    2.8328    2.6379 C.ar      1 <0>        -0.0626
      8 C7          0.5697    4.0692    2.7026 C.ar      1 <0>        -0.0492
      9 C8          0.6563    1.6857    1.9521 C.3       1 <0>        -0.1007
     10 C9          0.2675    1.6642    0.4725 C.3       1 <0>         0.1459
     11 H2          0.5850    2.5936   -0.0002 H         1 <0>         0.1062
     12 C10         0.9407    0.4996   -0.2069 C.2       1 <0>         0.5138
     13 O1          0.3588   -0.5591   -0.3137 O.2       1 <0>        -0.5103
     14 N1          2.1893    0.6347   -0.6959 N.am      1 <0>        -0.6092
     15 C11         2.9460    1.8763   -0.4823 C.3       1 <0>         0.0828
     16 C12         4.2855    1.5198    0.1844 C.3       1 <0>         0.0971
     17 N2          4.9124    0.4304   -0.5772 N.am      1 <0>        -0.6263
     18 C13         4.1536   -0.8091   -0.7955 C.3       1 <0>         0.0931
     19 C14         2.8162   -0.4547   -1.4576 C.3       1 <0>         0.0971
     20 C15         6.1611    0.5654   -1.0662 C.2       1 <0>         0.4942
     21 O2          6.6682   -0.3407   -1.6928 O.2       1 <0>        -0.5376
     22 N3         -1.1860    1.5265    0.3515 N.pl3     1 <0>        -1.1014
     23 S1         -2.1327    2.8727    0.1668 S.o2      1 <0>         2.6862
     24 O3         -3.4721    2.4138    0.0459 O.2       1 <0>        -0.9454
     25 O4         -1.7305    3.7931    1.1720 O.2       1 <0>        -0.9455
     26 C16        -1.7079    3.5999   -1.3809 C.ar      1 <0>        -0.6853
     27 C17        -0.6981    4.5591   -1.4346 C.ar      1 <0>        -0.0562
     28 C18        -0.3420    5.1363   -2.6145 C.ar      1 <0>        -0.1128
     29 C19        -1.0082    4.7703   -3.7966 C.ar      1 <0>        -0.0116
     30 C20        -0.6727    5.3494   -5.0324 C.ar      1 <0>        -0.1237
     31 C21        -1.3394    4.9702   -6.1567 C.ar      1 <0>        -0.0841
     32 C22        -2.3529    4.0149   -6.1022 C.ar      1 <0>        -0.1147
     33 C23        -2.7049    3.4333   -4.9234 C.ar      1 <0>        -0.0903
     34 C24        -2.0386    3.7989   -3.7412 C.ar      1 <0>        -0.0781
     35 C25        -2.3745    3.2206   -2.5051 C.ar      1 <0>         0.0296
     36 N4         -0.0725    7.5071    4.0292 N.pl3     1 <0>        -0.7829
     37 H3         -1.8404    5.7505    4.3972 H         1 <0>         0.1299
     38 H4         -2.9061    3.5368    4.2788 H         1 <0>         0.1414
     39 H5         -1.7580    1.6722    3.1569 H         1 <0>         0.1354
     40 H6          1.5450    4.2151    2.2624 H         1 <0>         0.1256
     41 H7          0.3580    0.7475    2.4198 H         1 <0>         0.1039
     42 H8          1.7355    1.8097    2.0424 H         1 <0>         0.0983
     43 H9          3.1293    2.3625   -1.4405 H         1 <0>         0.0848
     44 H10         2.3788    2.5434    0.1666 H         1 <0>         0.0921
     45 H11         4.1114    1.1958    1.2105 H         1 <0>         0.0783
     46 H12         4.9400    2.3914    0.1823 H         1 <0>         0.1009
     47 H13         3.9700   -1.2989    0.1607 H         1 <0>         0.0756
     48 H14         4.7182   -1.4769   -1.4462 H         1 <0>         0.1095
     49 H15         2.1631   -1.3273   -1.4528 H         1 <0>         0.1098
     50 H16         2.9876   -0.1317   -2.4844 H         1 <0>         0.0787
     51 H17         6.7101    1.4805   -0.9000 H         1 <0>         0.1347
     52 H18        -1.5935    0.6466    0.3756 H         1 <0>         0.4328
     53 H19        -0.1878    4.8456   -0.5269 H         1 <0>         0.1313
     54 H20         0.4449    5.8755   -2.6415 H         1 <0>         0.1345
     55 H21         0.1104    6.0908   -5.0898 H         1 <0>         0.1342
     56 H22        -1.0795    5.4164   -7.1052 H         1 <0>         0.1332
     57 H23        -2.8667    3.7323   -7.0092 H         1 <0>         0.1342
     58 H24        -3.4924    2.6946   -4.8963 H         1 <0>         0.1370
     59 H25        -3.1578    2.4793   -2.4476 H         1 <0>         0.1460
     60 H26        -0.9468    7.3717    4.4267 H         1 <0>         0.4430
     61 H27         0.3510    8.3787    4.0737 H         1 <0>         0.4293
     62 N5          1.7611    6.5808    2.8394 N.pl3     1 <0>        -0.7667
     63 H28         2.1971    5.7710    2.3831 H         1 <0>         0.4566
@<TRIPOS>BOND
     1    1   62 1
     2    2    3 1
     3    2   36 1
     4    2   62 2
     5    3    8 ar
     6    3    4 ar
     7    4    5 ar
     8    4   37 1
     9    5    6 ar
    10    5   38 1
    11    6    7 ar
    12    6   39 1
    13    7    8 ar
    14    7    9 1
    15    8   40 1
    16    9   10 1
    17    9   41 1
    18    9   42 1
    19   10   11 1
    20   10   12 1
    21   10   22 1
    22   12   13 2
    23   12   14 am
    24   14   19 1
    25   14   15 1
    26   15   16 1
    27   15   43 1
    28   15   44 1
    29   16   17 1
    30   16   45 1
    31   16   46 1
    32   17   18 1
    33   17   20 am
    34   18   19 1
    35   18   47 1
    36   18   48 1
    37   19   49 1
    38   19   50 1
    39   20   21 2
    40   20   51 1
    41   22   23 1
    42   22   52 1
    43   23   24 2
    44   23   25 2
    45   23   26 1
    46   26   35 ar
    47   26   27 ar
    48   27   28 ar
    49   27   53 1
    50   28   29 ar
    51   28   54 1
    52   29   34 ar
    53   29   30 ar
    54   30   31 ar
    55   30   55 1
    56   31   32 ar
    57   31   56 1
    58   32   33 ar
    59   32   57 1
    60   33   34 ar
    61   33   58 1
    62   34   35 ar
    63   35   59 1
    64   36   60 1
    65   36   61 1
    66   62   63 1
@<TRIPOS>MOLECULE
ZINC03834131
   61    64     0     0     0
SMALL
USER_CHARGES

@<TRIPOS>ATOM
      1 H1          1.4557   -1.5749   -0.0203 H         1 <0>         0.4433
      2 C1         -0.0905   -0.2509    0.0015 C.cat     1 <0>         0.5983
      3 C2         -0.4035    1.1965    0.0123 C.ar      1 <0>        -0.1380
      4 C3         -1.7306    1.6258    0.0214 C.ar      1 <0>        -0.0426
      5 C4         -2.0158    2.9756    0.0371 C.ar      1 <0>        -0.1090
      6 C5         -0.9888    3.9027    0.0319 C.ar      1 <0>        -0.0377
      7 C6          0.3291    3.4831    0.0171 C.ar      1 <0>        -0.0765
      8 C7          0.6272    2.1357    0.0075 C.ar      1 <0>        -0.0117
      9 C8          1.4418    4.4995    0.0119 C.3       1 <0>        -0.0987
     10 C9          1.8050    4.8506   -1.4323 C.3       1 <0>         0.1727
     11 H2          0.9115    5.1818   -1.9614 H         1 <0>         0.1273
     12 C10         2.8305    5.9550   -1.4380 C.2       1 <0>         0.4567
     13 O1          3.9114    5.7731   -1.9463 O.2       1 <0>        -0.4859
     14 O2          2.5430    7.1407   -0.8784 O.3       1 <0>        -0.3448
     15 C11         3.5783    8.1578   -0.9207 C.3       1 <0>         0.1122
     16 C12         3.0787    9.4112   -0.2493 C.ar      1 <0>        -0.1070
     17 C13         2.4277   10.3797   -0.9904 C.ar      1 <0>        -0.0938
     18 C14         1.9652   11.5272   -0.3737 C.ar      1 <0>        -0.1211
     19 C15         2.1627   11.7108    0.9820 C.ar      1 <0>        -0.1028
     20 C16         2.8188   10.7449    1.7220 C.ar      1 <0>        -0.1215
     21 C17         3.2766    9.5951    1.1063 C.ar      1 <0>        -0.0938
     22 N1          2.3570    3.6683   -2.0984 N.pl3     1 <0>        -1.1039
     23 S1          1.3712    2.6909   -3.0012 S.o2      1 <0>         2.6786
     24 O3          2.1950    1.6613   -3.5310 O.2       1 <0>        -0.9516
     25 O4          0.2285    2.4171   -2.2021 O.2       1 <0>        -0.9396
     26 C18         0.8095    3.6425   -4.3738 C.ar      1 <0>        -0.6834
     27 C19        -0.3700    4.3768   -4.2632 C.ar      1 <0>        -0.0568
     28 C20        -0.8287    5.1264   -5.3023 C.ar      1 <0>        -0.1088
     29 C21        -0.1108    5.1535   -6.5102 C.ar      1 <0>        -0.0101
     30 C22        -0.5567    5.9104   -7.6072 C.ar      1 <0>        -0.1211
     31 C23         0.1646    5.9131   -8.7613 C.ar      1 <0>        -0.0851
     32 C24         1.3413    5.1745   -8.8737 C.ar      1 <0>        -0.1148
     33 C25         1.8032    4.4297   -7.8325 C.ar      1 <0>        -0.0920
     34 C26         1.0856    4.4026   -6.6245 C.ar      1 <0>        -0.0797
     35 C27         1.5310    3.6451   -5.5277 C.ar      1 <0>         0.0269
     36 N2         -1.1111   -1.1764    0.0063 N.pl3     1 <0>        -0.7828
     37 H3         -2.5331    0.9031    0.0206 H         1 <0>         0.1300
     38 H4         -3.0429    3.3092    0.0491 H         1 <0>         0.1420
     39 H5         -1.2171    4.9583    0.0396 H         1 <0>         0.1410
     40 H6          1.6565    1.8092   -0.0033 H         1 <0>         0.1195
     41 H7          1.1147    5.3990    0.5333 H         1 <0>         0.1155
     42 H8          2.3151    4.0848    0.5156 H         1 <0>         0.0968
     43 H9          4.4649    7.7957   -0.4003 H         1 <0>         0.0850
     44 H10         3.8301    8.3771   -1.9582 H         1 <0>         0.0838
     45 H11         2.2770   10.2381   -2.0504 H         1 <0>         0.1240
     46 H12         1.4530   12.2819   -0.9519 H         1 <0>         0.1280
     47 H13         1.8047   12.6090    1.4632 H         1 <0>         0.1277
     48 H14         2.9734   10.8885    2.7812 H         1 <0>         0.1281
     49 H15         3.7892    8.8405    1.6845 H         1 <0>         0.1245
     50 H16         3.2998    3.4581   -2.0105 H         1 <0>         0.4304
     51 H17        -0.9260    4.3539   -3.3376 H         1 <0>         0.1387
     52 H18        -1.7423    5.6933   -5.2010 H         1 <0>         0.1389
     53 H19        -1.4667    6.4875   -7.5346 H         1 <0>         0.1361
     54 H20        -0.1800    6.4958   -9.6027 H         1 <0>         0.1335
     55 H21         1.8945    5.1933   -9.8009 H         1 <0>         0.1336
     56 H22         2.7165    3.8622   -7.9342 H         1 <0>         0.1357
     57 H23         2.4408    3.0678   -5.6004 H         1 <0>         0.1445
     58 H24        -2.0347   -0.8800    0.0168 H         1 <0>         0.4426
     59 H25        -0.9061   -2.1245   -0.0007 H         1 <0>         0.4294
     60 N3          1.1892   -0.5903   -0.0124 N.pl3     1 <0>        -0.7666
     61 H26         1.9133    0.1376   -0.0153 H         1 <0>         0.4559
@<TRIPOS>BOND
     1    1   60 1
     2    2    3 1
     3    2   36 1
     4    2   60 2
     5    3    8 ar
     6    3    4 ar
     7    4    5 ar
     8    4   37 1
     9    5    6 ar
    10    5   38 1
    11    6    7 ar
    12    6   39 1
    13    7    8 ar
    14    7    9 1
    15    8   40 1
    16    9   10 1
    17    9   41 1
    18    9   42 1
    19   10   11 1
    20   10   12 1
    21   10   22 1
    22   12   13 2
    23   12   14 1
    24   14   15 1
    25   15   16 1
    26   15   43 1
    27   15   44 1
    28   16   21 ar
    29   16   17 ar
    30   17   18 ar
    31   17   45 1
    32   18   19 ar
    33   18   46 1
    34   19   20 ar
    35   19   47 1
    36   20   21 ar
    37   20   48 1
    38   21   49 1
    39   22   23 1
    40   22   50 1
    41   23   24 2
    42   23   25 2
    43   23   26 1
    44   26   35 ar
    45   26   27 ar
    46   27   28 ar
    47   27   51 1
    48   28   29 ar
    49   28   52 1
    50   29   34 ar
    51   29   30 ar
    52   30   31 ar
    53   30   53 1
    54   31   32 ar
    55   31   54 1
    56   32   33 ar
    57   32   55 1
    58   33   34 ar
    59   33   56 1
    60   34   35 ar
    61   35   57 1
    62   36   58 1
    63   36   59 1
    64   60   61 1
@<TRIPOS>MOLECULE
ZINC03834132
   60    63     0     0     0
SMALL
USER_CHARGES

@<TRIPOS>ATOM
      1 H1          4.2628    4.1052    5.2510 H         1 <0>         0.4451
      2 C1          2.7679    2.7634    5.5816 C.cat     1 <0>         0.6014
      3 C2          1.9212    1.7518    4.9087 C.ar      1 <0>        -0.1513
      4 C3          0.9644    1.0439    5.6359 C.ar      1 <0>        -0.0550
      5 C4          0.1785    0.1027    5.0034 C.ar      1 <0>        -0.1063
      6 C5          0.3385   -0.1400    3.6507 C.ar      1 <0>        -0.0459
      7 C6          1.2853    0.5592    2.9242 C.ar      1 <0>        -0.0731
      8 C7          2.0808    1.4994    3.5467 C.ar      1 <0>        -0.0598
      9 C8          1.4528    0.2891    1.4510 C.3       1 <0>        -0.0872
     10 C9          0.5303    1.2143    0.6548 C.3       1 <0>         0.1391
     11 H2          0.7318    2.2504    0.9272 H         1 <0>         0.1160
     12 C10         0.7795    1.0249   -0.8193 C.2       1 <0>         0.4969
     13 O1          0.1116    0.2335   -1.4504 O.2       1 <0>        -0.5044
     14 N1          1.7446    1.7351   -1.4364 N.am      1 <0>        -0.6113
     15 C11         2.6339    2.6262   -0.6744 C.3       1 <0>         0.0628
     16 C12         4.0854    2.2973   -1.0586 C.3       1 <0>         0.0465
     17 O2          4.2144    2.3379   -2.4818 O.3       1 <0>        -0.3723
     18 C13         3.4181    1.3700   -3.1696 C.3       1 <0>         0.0475
     19 C14         1.9361    1.6471   -2.8927 C.3       1 <0>         0.0770
     20 N2         -0.8660    0.8920    0.9594 N.pl3     1 <0>        -1.0966
     21 S1         -2.0018    2.0961    1.0087 S.o2      1 <0>         2.6896
     22 O3         -3.2456    1.4697    1.2916 O.2       1 <0>        -0.9452
     23 O4         -1.4652    3.1274    1.8256 O.2       1 <0>        -0.9538
     24 C15        -2.1301    2.7582   -0.6191 C.ar      1 <0>        -0.6818
     25 C16        -1.3171    3.8273   -0.9913 C.ar      1 <0>        -0.0528
     26 C17        -1.3872    4.3586   -2.2422 C.ar      1 <0>        -0.1112
     27 C18        -2.3003    3.8313   -3.1714 C.ar      1 <0>        -0.0083
     28 C19        -2.4060    4.3580   -4.4701 C.ar      1 <0>        -0.1223
     29 C20        -3.3014    3.8216   -5.3433 C.ar      1 <0>        -0.0863
     30 C21        -4.1183    2.7560   -4.9695 C.ar      1 <0>        -0.1176
     31 C22        -4.0440    2.2206   -3.7205 C.ar      1 <0>        -0.0885
     32 C23        -3.1309    2.7478   -2.7913 C.ar      1 <0>        -0.0769
     33 C24        -3.0256    2.2218   -1.4922 C.ar      1 <0>         0.0373
     34 N3          2.6113    3.0070    6.9286 N.pl3     1 <0>        -0.7786
     35 H3          0.8391    1.2321    6.6920 H         1 <0>         0.1399
     36 H4         -0.5627   -0.4461    5.5654 H         1 <0>         0.1524
     37 H5         -0.2787   -0.8780    3.1601 H         1 <0>         0.1470
     38 H6          2.8229    2.0415    2.9792 H         1 <0>         0.1354
     39 H7          1.1959   -0.7490    1.2404 H         1 <0>         0.1077
     40 H8          2.4879    0.4727    1.1633 H         1 <0>         0.1021
     41 H9          2.4121    3.6645   -0.9211 H         1 <0>         0.0875
     42 H10         2.4896    2.4631    0.3936 H         1 <0>         0.0870
     43 H11         4.3436    1.3017   -0.6979 H         1 <0>         0.0583
     44 H12         4.7552    3.0318   -0.6112 H         1 <0>         0.1082
     45 H13         3.6739    0.3710   -2.8165 H         1 <0>         0.0596
     46 H14         3.6073    1.4378   -4.2408 H         1 <0>         0.1124
     47 H15         1.3296    0.8353   -3.2943 H         1 <0>         0.1053
     48 H16         1.6447    2.5883   -3.3588 H         1 <0>         0.0812
     49 H17        -1.1258   -0.0271    1.1283 H         1 <0>         0.4267
     50 H18        -0.6179    4.2375   -0.2776 H         1 <0>         0.1307
     51 H19        -0.7483    5.1845   -2.5178 H         1 <0>         0.1349
     52 H20        -1.7794    5.1836   -4.7738 H         1 <0>         0.1336
     53 H21        -3.3805    4.2279   -6.3408 H         1 <0>         0.1316
     54 H22        -4.8211    2.3492   -5.6815 H         1 <0>         0.1322
     55 H23        -4.6835    1.3953   -3.4447 H         1 <0>         0.1351
     56 H24        -3.6522    1.3963   -1.1884 H         1 <0>         0.1452
     57 H25         1.9465    2.5158    7.4362 H         1 <0>         0.4435
     58 H26         3.1658    3.6696    7.3693 H         1 <0>         0.4320
     59 N4          3.6562    3.3993    4.8335 N.pl3     1 <0>        -0.7601
     60 H27         3.7344    3.1820    3.8330 H         1 <0>         0.4583
@<TRIPOS>BOND
     1    1   59 1
     2    2    3 1
     3    2   34 1
     4    2   59 2
     5    3    8 ar
     6    3    4 ar
     7    4    5 ar
     8    4   35 1
     9    5    6 ar
    10    5   36 1
    11    6    7 ar
    12    6   37 1
    13    7    8 ar
    14    7    9 1
    15    8   38 1
    16    9   10 1
    17    9   39 1
    18    9   40 1
    19   10   11 1
    20   10   12 1
    21   10   20 1
    22   12   13 2
    23   12   14 am
    24   14   19 1
    25   14   15 1
    26   15   16 1
    27   15   41 1
    28   15   42 1
    29   16   17 1
    30   16   43 1
    31   16   44 1
    32   17   18 1
    33   18   19 1
    34   18   45 1
    35   18   46 1
    36   19   47 1
    37   19   48 1
    38   20   21 1
    39   20   49 1
    40   21   22 2
    41   21   23 2
    42   21   24 1
    43   24   33 ar
    44   24   25 ar
    45   25   26 ar
    46   25   50 1
    47   26   27 ar
    48   26   51 1
    49   27   32 ar
    50   27   28 ar
    51   28   29 ar
    52   28   52 1
    53   29   30 ar
    54   29   53 1
    55   30   31 ar
    56   30   54 1
    57   31   32 ar
    58   31   55 1
    59   32   33 ar
    60   33   56 1
    61   34   57 1
    62   34   58 1
    63   59   60 1
@<TRIPOS>MOLECULE
ZINC03834133
   67    70     0     0     0
SMALL
USER_CHARGES

@<TRIPOS>ATOM
      1 H1          2.2471    7.4776    2.8601 H         1 <0>         0.4417
      2 C1          0.5681    6.4613    3.4011 C.cat     1 <0>         0.6006
      3 C2         -0.0783    5.1307    3.3330 C.ar      1 <0>        -0.1460
      4 C3         -1.3356    4.9331    3.9038 C.ar      1 <0>        -0.0399
      5 C4         -1.9327    3.6911    3.8372 C.ar      1 <0>        -0.0925
      6 C5         -1.2868    2.6427    3.2062 C.ar      1 <0>        -0.0261
      7 C6         -0.0401    2.8328    2.6379 C.ar      1 <0>        -0.0626
      8 C7          0.5697    4.0692    2.7026 C.ar      1 <0>        -0.0494
      9 C8          0.6563    1.6857    1.9521 C.3       1 <0>        -0.1009
     10 C9          0.2675    1.6642    0.4725 C.3       1 <0>         0.1457
     11 H2          0.5850    2.5936   -0.0002 H         1 <0>         0.1061
     12 C10         0.9407    0.4996   -0.2069 C.2       1 <0>         0.5141
     13 O1          0.3588   -0.5591   -0.3137 O.2       1 <0>        -0.5092
     14 N1          2.1893    0.6347   -0.6959 N.am      1 <0>        -0.6089
     15 C11         2.9460    1.8763   -0.4823 C.3       1 <0>         0.0835
     16 C12         4.2855    1.5198    0.1844 C.3       1 <0>         0.0909
     17 N2          4.9124    0.4304   -0.5772 N.am      1 <0>        -0.6180
     18 C13         4.1536   -0.8091   -0.7955 C.3       1 <0>         0.0993
     19 C14         2.8162   -0.4547   -1.4576 C.3       1 <0>         0.0969
     20 C15         6.1611    0.5654   -1.0662 C.2       1 <0>         0.5118
     21 O2          6.6682   -0.3407   -1.6928 O.2       1 <0>        -0.5019
     22 C16         6.9272    1.8423   -0.8343 C.3       1 <0>         0.0624
     23 O3          8.2152    1.7428   -1.4451 O.3       1 <0>        -0.5455
     24 N3         -1.1860    1.5265    0.3515 N.pl3     1 <0>        -1.1013
     25 S1         -2.1327    2.8727    0.1668 S.o2      1 <0>         2.6862
     26 O4         -3.4721    2.4138    0.0459 O.2       1 <0>        -0.9452
     27 O5         -1.7305    3.7931    1.1720 O.2       1 <0>        -0.9456
     28 C17        -1.7079    3.5999   -1.3809 C.ar      1 <0>        -0.6855
     29 C18        -0.6981    4.5591   -1.4346 C.ar      1 <0>        -0.0563
     30 C19        -0.3420    5.1363   -2.6145 C.ar      1 <0>        -0.1129
     31 C20        -1.0082    4.7703   -3.7966 C.ar      1 <0>        -0.0116
     32 C21        -0.6727    5.3494   -5.0324 C.ar      1 <0>        -0.1238
     33 C22        -1.3394    4.9702   -6.1567 C.ar      1 <0>        -0.0839
     34 C23        -2.3529    4.0149   -6.1022 C.ar      1 <0>        -0.1145
     35 C24        -2.7049    3.4333   -4.9234 C.ar      1 <0>        -0.0902
     36 C25        -2.0386    3.7989   -3.7412 C.ar      1 <0>        -0.0781
     37 C26        -2.3745    3.2206   -2.5051 C.ar      1 <0>         0.0298
     38 N4         -0.0725    7.5071    4.0292 N.pl3     1 <0>        -0.7827
     39 H3         -1.8404    5.7505    4.3972 H         1 <0>         0.1299
     40 H4         -2.9061    3.5368    4.2788 H         1 <0>         0.1415
     41 H5         -1.7580    1.6722    3.1569 H         1 <0>         0.1356
     42 H6          1.5450    4.2151    2.2624 H         1 <0>         0.1253
     43 H7          0.3580    0.7475    2.4198 H         1 <0>         0.1043
     44 H8          1.7355    1.8097    2.0424 H         1 <0>         0.0981
     45 H9          3.1293    2.3625   -1.4405 H         1 <0>         0.0851
     46 H10         2.3788    2.5434    0.1666 H         1 <0>         0.0933
     47 H11         4.1114    1.1958    1.2105 H         1 <0>         0.0817
     48 H12         4.9400    2.3914    0.1823 H         1 <0>         0.0987
     49 H13         3.9700   -1.2989    0.1607 H         1 <0>         0.0785
     50 H14         4.7182   -1.4769   -1.4462 H         1 <0>         0.1110
     51 H15         2.1631   -1.3273   -1.4528 H         1 <0>         0.1119
     52 H16         2.9876   -0.1317   -2.4844 H         1 <0>         0.0798
     53 H17         6.3812    2.6782   -1.2717 H         1 <0>         0.0758
     54 H18         7.0447    2.0061    0.2369 H         1 <0>         0.0772
     55 H19         8.7644    2.5310   -1.3356 H         1 <0>         0.3908
     56 H20        -1.5935    0.6466    0.3756 H         1 <0>         0.4329
     57 H21        -0.1878    4.8456   -0.5269 H         1 <0>         0.1312
     58 H22         0.4449    5.8755   -2.6415 H         1 <0>         0.1344
     59 H23         0.1104    6.0908   -5.0898 H         1 <0>         0.1341
     60 H24        -1.0795    5.4164   -7.1052 H         1 <0>         0.1332
     61 H25        -2.8667    3.7323   -7.0092 H         1 <0>         0.1342
     62 H26        -3.4924    2.6946   -4.8963 H         1 <0>         0.1371
     63 H27        -3.1578    2.4793   -2.4476 H         1 <0>         0.1460
     64 H28        -0.9468    7.3717    4.4267 H         1 <0>         0.4431
     65 H29         0.3510    8.3787    4.0737 H         1 <0>         0.4293
     66 N5          1.7611    6.5808    2.8394 N.pl3     1 <0>        -0.7670
     67 H30         2.1971    5.7710    2.3831 H         1 <0>         0.4564
@<TRIPOS>BOND
     1    1   66 1
     2    2    3 1
     3    2   38 1
     4    2   66 2
     5    3    8 ar
     6    3    4 ar
     7    4    5 ar
     8    4   39 1
     9    5    6 ar
    10    5   40 1
    11    6    7 ar
    12    6   41 1
    13    7    8 ar
    14    7    9 1
    15    8   42 1
    16    9   10 1
    17    9   43 1
    18    9   44 1
    19   10   11 1
    20   10   12 1
    21   10   24 1
    22   12   13 2
    23   12   14 am
    24   14   19 1
    25   14   15 1
    26   15   16 1
    27   15   45 1
    28   15   46 1
    29   16   17 1
    30   16   47 1
    31   16   48 1
    32   17   18 1
    33   17   20 am
    34   18   19 1
    35   18   49 1
    36   18   50 1
    37   19   51 1
    38   19   52 1
    39   20   21 2
    40   20   22 1
    41   22   23 1
    42   22   53 1
    43   22   54 1
    44   23   55 1
    45   24   25 1
    46   24   56 1
    47   25   26 2
    48   25   27 2
    49   25   28 1
    50   28   37 ar
    51   28   29 ar
    52   29   30 ar
    53   29   57 1
    54   30   31 ar
    55   30   58 1
    56   31   36 ar
    57   31   32 ar
    58   32   33 ar
    59   32   59 1
    60   33   34 ar
    61   33   60 1
    62   34   35 ar
    63   34   61 1
    64   35   36 ar
    65   35   62 1
    66   36   37 ar
    67   37   63 1
    68   38   64 1
    69   38   65 1
    70   66   67 1
@<TRIPOS>MOLECULE
ZINC03834134
   68    70     0     0     0
SMALL
USER_CHARGES

@<TRIPOS>ATOM
      1 H1          0.3729   -2.0197   -2.2352 H         1 <0>         0.4458
      2 C1         -0.5864   -0.5806   -1.1613 C.cat     1 <0>         0.5988
      3 C2         -0.4230    0.7827   -0.6067 C.ar      1 <0>        -0.1530
      4 C3         -1.4629    1.3773    0.1078 C.ar      1 <0>        -0.0555
      5 C4         -1.3025    2.6454    0.6270 C.ar      1 <0>        -0.1036
      6 C5         -0.1176    3.3319    0.4300 C.ar      1 <0>        -0.0467
      7 C6          0.9152    2.7498   -0.2826 C.ar      1 <0>        -0.0717
      8 C7          0.7691    1.4794   -0.8015 C.ar      1 <0>        -0.0600
      9 C8          2.2028    3.5042   -0.4923 C.3       1 <0>        -0.0893
     10 C9          2.1121    4.3189   -1.7842 C.3       1 <0>         0.1364
     11 H2          1.2175    4.9412   -1.7592 H         1 <0>         0.1210
     12 C10         3.3308    5.1959   -1.9117 C.2       1 <0>         0.4944
     13 O1          4.1767    4.9417   -2.7428 O.2       1 <0>        -0.5086
     14 N1          3.4809    6.2630   -1.1021 N.am      1 <0>        -0.6049
     15 C11         2.4294    6.6291   -0.1435 C.3       1 <0>         0.0976
     16 C12         2.0520    8.0942   -0.3544 C.3       1 <0>        -0.1349
     17 C13         3.3109    8.9604   -0.2683 C.3       1 <0>        -0.0916
     18 C14         4.2914    8.5491   -1.3690 C.3       1 <0>        -0.1310
     19 C15         4.6966    7.0857   -1.1657 C.3       1 <0>         0.1112
     20 C16         2.9307   10.4315   -0.4480 C.3       1 <0>        -0.1495
     21 N2          2.0425    3.4098   -2.9309 N.pl3     1 <0>        -1.0979
     22 S1          1.1158    3.8044   -4.2453 S.o2      1 <0>         2.6878
     23 O2          1.2629    2.7435   -5.1792 O.2       1 <0>        -0.9541
     24 O3         -0.1510    4.2071   -3.7431 O.2       1 <0>        -0.9521
     25 C17         1.8407    5.2301   -4.9847 C.ar      1 <0>        -0.6908
     26 C18         1.3188    6.4837   -4.7262 C.ar      1 <0>         0.0249
     27 C19         1.8902    7.6026   -5.3027 C.ar      1 <0>        -0.1526
     28 C20         2.9778    7.4671   -6.1451 C.ar      1 <0>        -0.0090
     29 C21         3.4965    6.2129   -6.4077 C.ar      1 <0>        -0.1502
     30 C22         2.9278    5.0944   -5.8277 C.ar      1 <0>         0.0483
     31 C23         3.4932    3.7271   -6.1141 C.3       1 <0>        -0.1325
     32 C24         3.5985    8.6865   -6.7766 C.3       1 <0>        -0.1279
     33 C25         0.1298    6.6311   -3.8120 C.3       1 <0>        -0.1598
     34 N3         -1.7655   -1.2666   -0.9671 N.pl3     1 <0>        -0.7789
     35 H3         -2.3901    0.8442    0.2582 H         1 <0>         0.1395
     36 H4         -2.1054    3.1050    1.1846 H         1 <0>         0.1518
     37 H5          0.0016    4.3262    0.8345 H         1 <0>         0.1474
     38 H6          1.5764    1.0256   -1.3572 H         1 <0>         0.1334
     39 H7          2.3718    4.1757    0.3495 H         1 <0>         0.1086
     40 H8          3.0298    2.7980   -0.5654 H         1 <0>         0.1009
     41 H9          1.5534    6.0008   -0.3044 H         1 <0>         0.0798
     42 H10         2.7980    6.4923    0.8731 H         1 <0>         0.0788
     43 H11         1.3445    8.4033    0.4149 H         1 <0>         0.0816
     44 H12         1.5960    8.2120   -1.3373 H         1 <0>         0.0702
     45 H13         3.7800    8.8230    0.7059 H         1 <0>         0.0742
     46 H14         5.1776    9.1818   -1.3217 H         1 <0>         0.0784
     47 H15         3.8142    8.6625   -2.3423 H         1 <0>         0.0678
     48 H16         5.2538    6.9869   -0.2341 H         1 <0>         0.0717
     49 H17         5.3159    6.7587   -2.0008 H         1 <0>         0.0944
     50 H18         2.4619   10.5692   -1.4224 H         1 <0>         0.0548
     51 H19         2.2323   10.7246    0.3359 H         1 <0>         0.0577
     52 H20         3.8270   11.0486   -0.3855 H         1 <0>         0.0582
     53 H21         2.5392    2.5766   -2.9202 H         1 <0>         0.4182
     54 H22         1.4852    8.5826   -5.0972 H         1 <0>         0.1297
     55 H23         4.3463    6.1070   -7.0658 H         1 <0>         0.1313
     56 H24         2.9951    3.3033   -6.9861 H         1 <0>         0.0923
     57 H25         4.5621    3.8100   -6.3108 H         1 <0>         0.0789
     58 H26         3.3313    3.0793   -5.2526 H         1 <0>         0.0678
     59 H27         3.1145    8.8868   -7.7325 H         1 <0>         0.0820
     60 H28         3.4678    9.5440   -6.1164 H         1 <0>         0.0733
     61 H29         4.6621    8.5108   -6.9376 H         1 <0>         0.0743
     62 H30         0.4445    6.4803   -2.7794 H         1 <0>         0.0686
     63 H31        -0.2909    7.6307   -3.9214 H         1 <0>         0.0742
     64 H32        -0.6243    5.8888   -4.0742 H         1 <0>         0.1249
     65 H33        -2.4884   -0.8566   -0.4671 H         1 <0>         0.4432
     66 H34        -1.8726   -2.1596   -1.3304 H         1 <0>         0.4321
     67 N4          0.4370   -1.0840   -1.8339 N.pl3     1 <0>        -0.7593
     68 H35         1.2951   -0.5326   -1.9515 H         1 <0>         0.4590
@<TRIPOS>BOND
     1    1   67 1
     2    2    3 1
     3    2   34 1
     4    2   67 2
     5    3    8 ar
     6    3    4 ar
     7    4    5 ar
     8    4   35 1
     9    5    6 ar
    10    5   36 1
    11    6    7 ar
    12    6   37 1
    13    7    8 ar
    14    7    9 1
    15    8   38 1
    16    9   10 1
    17    9   39 1
    18    9   40 1
    19   10   11 1
    20   10   12 1
    21   10   21 1
    22   12   13 2
    23   12   14 am
    24   14   19 1
    25   14   15 1
    26   15   16 1
    27   15   41 1
    28   15   42 1
    29   16   17 1
    30   16   43 1
    31   16   44 1
    32   17   18 1
    33   17   20 1
    34   17   45 1
    35   18   19 1
    36   18   46 1
    37   18   47 1
    38   19   48 1
    39   19   49 1
    40   20   50 1
    41   20   51 1
    42   20   52 1
    43   21   22 1
    44   21   53 1
    45   22   23 2
    46   22   24 2
    47   22   25 1
    48   25   30 ar
    49   25   26 ar
    50   26   27 ar
    51   26   33 1
    52   27   28 ar
    53   27   54 1
    54   28   29 ar
    55   28   32 1
    56   29   30 ar
    57   29   55 1
    58   30   31 1
    59   31   56 1
    60   31   57 1
    61   31   58 1
    62   32   59 1
    63   32   60 1
    64   32   61 1
    65   33   62 1
    66   33   63 1
    67   33   64 1
    68   34   65 1
    69   34   66 1
    70   67   68 1
@<TRIPOS>MOLECULE
ZINC03834135
   62    65     0     0     0
SMALL
USER_CHARGES

@<TRIPOS>ATOM
      1 H1          6.5095    6.1514    2.1422 H         1 <0>         0.4448
      2 C1          7.7996    4.8659    1.2323 C.cat     1 <0>         0.6015
      3 C2          7.8822    3.5308    0.5972 C.ar      1 <0>        -0.1516
      4 C3          9.0965    3.0721    0.0867 C.ar      1 <0>        -0.0555
      5 C4          9.1672    1.8273   -0.5039 C.ar      1 <0>        -0.1065
      6 C5          8.0365    1.0346   -0.5911 C.ar      1 <0>        -0.0462
      7 C6          6.8296    1.4837   -0.0864 C.ar      1 <0>        -0.0725
      8 C7          6.7451    2.7293    0.5021 C.ar      1 <0>        -0.0598
      9 C8          5.6029    0.6140   -0.1849 C.3       1 <0>        -0.0912
     10 C9          5.5030   -0.2698    1.0602 C.3       1 <0>         0.1392
     11 H2          5.5268    0.3558    1.9525 H         1 <0>         0.1177
     12 C10         4.2109   -1.0444    1.0240 C.2       1 <0>         0.4932
     13 O1          4.2289   -2.2468    0.8661 O.2       1 <0>        -0.5046
     14 N1          3.0352   -0.4011    1.1672 N.am      1 <0>        -0.6070
     15 C11         2.9998    1.0446    1.4265 C.3       1 <0>         0.0985
     16 C12         2.1549    1.3004    2.6785 C.3       1 <0>        -0.1385
     17 C13         0.7766    0.6601    2.4985 C.3       1 <0>        -0.1220
     18 C14         0.9338   -0.8519    2.3225 C.3       1 <0>        -0.1365
     19 C15         1.7648   -1.1322    1.0664 C.3       1 <0>         0.1108
     20 N2          6.6316   -1.2034    1.0881 N.pl3     1 <0>        -1.0954
     21 S1          7.3110   -1.6381    2.5344 S.o2      1 <0>         2.6910
     22 O2          8.3490   -2.5611    2.2344 O.2       1 <0>        -0.9474
     23 O3          7.5462   -0.4337    3.2509 O.2       1 <0>        -0.9564
     24 C16         6.0888   -2.5304    3.4370 C.ar      1 <0>        -0.6747
     25 C17         5.2255   -1.8427    4.2880 C.ar      1 <0>        -0.0517
     26 C18         4.2669   -2.5010    4.9951 C.ar      1 <0>        -0.1124
     27 C19         4.1508   -3.8965    4.8768 C.ar      1 <0>        -0.0076
     28 C20         3.1779   -4.6115    5.5962 C.ar      1 <0>        -0.1226
     29 C21         3.0948   -5.9626    5.4562 C.ar      1 <0>        -0.0877
     30 C22         3.9615   -6.6511    4.6094 C.ar      1 <0>        -0.1190
     31 C23         4.9161   -5.9921    3.8975 C.ar      1 <0>        -0.0881
     32 C24         5.0322   -4.5965    4.0156 C.ar      1 <0>        -0.0751
     33 C25         6.0056   -3.8816    3.2969 C.ar      1 <0>         0.0412
     34 N3          8.9237    5.6578    1.3201 N.pl3     1 <0>        -0.7790
     35 H3          9.9796    3.6903    0.1535 H         1 <0>         0.1396
     36 H4         10.1068    1.4710   -0.8995 H         1 <0>         0.1520
     37 H5          8.0966    0.0610   -1.0546 H         1 <0>         0.1467
     38 H6          5.8012    3.0807    0.8919 H         1 <0>         0.1354
     39 H7          5.6738   -0.0152   -1.0721 H         1 <0>         0.1055
     40 H8          4.7158    1.2434   -0.2557 H         1 <0>         0.1052
     41 H9          2.5547    1.5579    0.5742 H         1 <0>         0.0777
     42 H10         4.0132    1.4119    1.5883 H         1 <0>         0.0772
     43 H11         2.0406    2.3742    2.8272 H         1 <0>         0.0778
     44 H12         2.6486    0.8631    3.5463 H         1 <0>         0.0700
     45 H13         0.1649    0.8617    3.3779 H         1 <0>         0.0699
     46 H14         0.2934    1.0802    1.6163 H         1 <0>         0.0671
     47 H15         1.4390   -1.2691    3.1936 H         1 <0>         0.0681
     48 H16        -0.0498   -1.3102    2.2178 H         1 <0>         0.0789
     49 H17         1.2189   -0.7964    0.1848 H         1 <0>         0.0717
     50 H18         1.9634   -2.2013    0.9906 H         1 <0>         0.0951
     51 H19         6.9809   -1.5671    0.2595 H         1 <0>         0.4253
     52 H20         5.3156   -0.7708    4.3843 H         1 <0>         0.1291
     53 H21         3.6025   -1.9544    5.6479 H         1 <0>         0.1328
     54 H22         2.4995   -4.0912    6.2560 H         1 <0>         0.1322
     55 H23         2.3460   -6.5096    6.0099 H         1 <0>         0.1305
     56 H24         3.8747   -7.7235    4.5170 H         1 <0>         0.1313
     57 H25         5.5811   -6.5388    3.2454 H         1 <0>         0.1345
     58 H26         6.6843   -4.4017    2.6372 H         1 <0>         0.1439
     59 H27         9.7692    5.3407    0.9658 H         1 <0>         0.4435
     60 H28         8.8696    6.5324    1.7362 H         1 <0>         0.4318
     61 N4          6.6172    5.2403    1.6960 N.pl3     1 <0>        -0.7603
     62 H29         5.8088    4.6137    1.6066 H         1 <0>         0.4585
@<TRIPOS>BOND
     1    1   61 1
     2    2    3 1
     3    2   34 1
     4    2   61 2
     5    3    8 ar
     6    3    4 ar
     7    4    5 ar
     8    4   35 1
     9    5    6 ar
    10    5   36 1
    11    6    7 ar
    12    6   37 1
    13    7    8 ar
    14    7    9 1
    15    8   38 1
    16    9   10 1
    17    9   39 1
    18    9   40 1
    19   10   11 1
    20   10   12 1
    21   10   20 1
    22   12   13 2
    23   12   14 am
    24   14   19 1
    25   14   15 1
    26   15   16 1
    27   15   41 1
    28   15   42 1
    29   16   17 1
    30   16   43 1
    31   16   44 1
    32   17   18 1
    33   17   45 1
    34   17   46 1
    35   18   19 1
    36   18   47 1
    37   18   48 1
    38   19   49 1
    39   19   50 1
    40   20   21 1
    41   20   51 1
    42   21   22 2
    43   21   23 2
    44   21   24 1
    45   24   33 ar
    46   24   25 ar
    47   25   26 ar
    48   25   52 1
    49   26   27 ar
    50   26   53 1
    51   27   32 ar
    52   27   28 ar
    53   28   29 ar
    54   28   54 1
    55   29   30 ar
    56   29   55 1
    57   30   31 ar
    58   30   56 1
    59   31   32 ar
    60   31   57 1
    61   32   33 ar
    62   33   58 1
    63   34   59 1
    64   34   60 1
    65   61   62 1
@<TRIPOS>MOLECULE
ZINC03834136
   72    74     0     0     0
SMALL
USER_CHARGES

@<TRIPOS>ATOM
      1 H1         -3.0588    2.4660   -6.1220 H         1 <0>         0.4433
      2 C1         -2.9723    0.4840   -6.5789 C.cat     1 <0>         0.5962
      3 C2         -2.0664   -0.6874   -6.5800 C.ar      1 <0>        -0.1368
      4 C3         -2.5246   -1.9265   -7.0273 C.ar      1 <0>        -0.0411
      5 C4         -1.6756   -3.0141   -7.0264 C.ar      1 <0>        -0.0963
      6 C5         -0.3705   -2.8761   -6.5884 C.ar      1 <0>        -0.0362
      7 C6          0.0881   -1.6513   -6.1383 C.ar      1 <0>        -0.0630
      8 C7         -0.7516   -0.5560   -6.1344 C.ar      1 <0>        -0.0428
      9 C8          1.5092   -1.5109   -5.6572 C.3       1 <0>        -0.1059
     10 C9          1.5688   -1.7913   -4.1542 C.3       1 <0>         0.1419
     11 H2          1.2532   -2.8170   -3.9632 H         1 <0>         0.1116
     12 C10         2.9808   -1.6005   -3.6631 C.2       1 <0>         0.5138
     13 O1          3.2640   -0.6296   -2.9939 O.2       1 <0>        -0.5214
     14 N1          3.9287   -2.5088   -3.9677 N.am      1 <0>        -0.6039
     15 C11         3.6303   -3.6278   -4.8720 C.3       1 <0>         0.0961
     16 C12         4.0053   -4.9384   -4.1826 C.3       1 <0>        -0.1347
     17 C13         5.4640   -4.8719   -3.7244 C.3       1 <0>        -0.0929
     18 C14         5.6333   -3.7299   -2.7198 C.3       1 <0>        -0.1322
     19 C15         5.2784   -2.4025   -3.3970 C.3       1 <0>         0.1100
     20 C16         5.8509   -6.1955   -3.0615 C.3       1 <0>        -0.1498
     21 N2          0.6775   -0.8668   -3.4493 N.pl3     1 <0>        -1.1021
     22 S1         -0.8672   -1.3305   -3.0736 S.o2      1 <0>         2.6891
     23 O2         -1.4282   -1.8737   -4.2608 O.2       1 <0>        -0.9458
     24 O3         -1.4606   -0.2416   -2.3796 O.2       1 <0>        -0.9555
     25 C17        -0.7471   -2.6572   -1.9205 C.ar      1 <0>        -0.7279
     26 C18        -0.5460   -2.3895   -0.5787 C.ar      1 <0>         0.0682
     27 C19        -0.4575   -3.4276    0.3281 C.ar      1 <0>        -0.2372
     28 C20        -0.5650   -4.7401   -0.1090 C.ar      1 <0>         0.1997
     29 C21        -0.7611   -5.0062   -1.4561 C.ar      1 <0>        -0.1477
     30 C22        -0.8488   -3.9642   -2.3592 C.ar      1 <0>         0.0535
     31 C23        -1.0623   -4.2525   -3.8229 C.3       1 <0>        -0.1568
     32 C24        -0.8787   -6.4305   -1.9342 C.3       1 <0>        -0.1086
     33 O4         -0.4787   -5.7632    0.7814 O.3       1 <0>        -0.3040
     34 C25        -0.2768   -5.4148    2.1525 C.3       1 <0>         0.0202
     35 C26        -0.4293   -0.9638   -0.1047 C.3       1 <0>        -0.1905
     36 N3         -4.2709    0.3510   -7.0198 N.pl3     1 <0>        -0.7824
     37 H3         -3.5417   -2.0343   -7.3739 H         1 <0>         0.1297
     38 H4         -2.0295   -3.9742   -7.3722 H         1 <0>         0.1421
     39 H5          0.2916   -3.7293   -6.5937 H         1 <0>         0.1377
     40 H6         -0.3912    0.4008   -5.7867 H         1 <0>         0.1229
     41 H7          1.8604   -0.4976   -5.8519 H         1 <0>         0.0986
     42 H8          2.1436   -2.2230   -6.1850 H         1 <0>         0.1063
     43 H9          2.5663   -3.6325   -5.1089 H         1 <0>         0.0832
     44 H10         4.2103   -3.5214   -5.7888 H         1 <0>         0.0816
     45 H11         3.8805   -5.7665   -4.8803 H         1 <0>         0.0826
     46 H12         3.3589   -5.0897   -3.3181 H         1 <0>         0.0688
     47 H13         6.1075   -4.6957   -4.5864 H         1 <0>         0.0757
     48 H14         6.6673   -3.6980   -2.3762 H         1 <0>         0.0810
     49 H15         4.9716   -3.8927   -1.8690 H         1 <0>         0.0668
     50 H16         5.9955   -2.1941   -4.1910 H         1 <0>         0.0746
     51 H17         5.3015   -1.5990   -2.6609 H         1 <0>         0.0952
     52 H18         5.2078   -6.3716   -2.1993 H         1 <0>         0.0544
     53 H19         5.7303   -7.0090   -3.7770 H         1 <0>         0.0583
     54 H20         6.8901   -6.1488   -2.7362 H         1 <0>         0.0588
     55 H21         0.9922    0.0170   -3.2026 H         1 <0>         0.4285
     56 H22        -0.3045   -3.2179    1.3765 H         1 <0>         0.1392
     57 H23        -2.1311   -4.2854   -4.0347 H         1 <0>         0.0947
     58 H24        -0.5978   -3.4674   -4.4194 H         1 <0>         0.1015
     59 H25        -0.6127   -5.2133   -4.0733 H         1 <0>         0.0774
     60 H26        -1.9244   -6.7371   -1.9086 H         1 <0>         0.0722
     61 H27        -0.5036   -6.5033   -2.9551 H         1 <0>         0.0720
     62 H28        -0.2932   -7.0813   -1.2847 H         1 <0>         0.0729
     63 H29        -1.1062   -4.7966    2.4962 H         1 <0>         0.0621
     64 H30        -0.2263   -6.3221    2.7543 H         1 <0>         0.1099
     65 H31         0.6559   -4.8598    2.2528 H         1 <0>         0.0615
     66 H32         0.5874   -0.6076   -0.2710 H         1 <0>         0.0848
     67 H33        -1.1288   -0.3382   -0.6592 H         1 <0>         0.1308
     68 H34        -0.6621   -0.9143    0.9589 H         1 <0>         0.0813
     69 H35        -4.5917   -0.5099   -7.3309 H         1 <0>         0.4426
     70 H36        -4.8643    1.1183   -7.0190 H         1 <0>         0.4296
     71 N4         -2.4740    1.6304   -6.1422 N.pl3     1 <0>        -0.7649
     72 H37        -1.4990    1.6783   -5.8239 H         1 <0>         0.4572
@<TRIPOS>BOND
     1    1   71 1
     2    2    3 1
     3    2   36 1
     4    2   71 2
     5    3    8 ar
     6    3    4 ar
     7    4    5 ar
     8    4   37 1
     9    5    6 ar
    10    5   38 1
    11    6    7 ar
    12    6   39 1
    13    7    8 ar
    14    7    9 1
    15    8   40 1
    16    9   10 1
    17    9   41 1
    18    9   42 1
    19   10   11 1
    20   10   12 1
    21   10   21 1
    22   12   13 2
    23   12   14 am
    24   14   19 1
    25   14   15 1
    26   15   16 1
    27   15   43 1
    28   15   44 1
    29   16   17 1
    30   16   45 1
    31   16   46 1
    32   17   18 1
    33   17   20 1
    34   17   47 1
    35   18   19 1
    36   18   48 1
    37   18   49 1
    38   19   50 1
    39   19   51 1
    40   20   52 1
    41   20   53 1
    42   20   54 1
    43   21   22 1
    44   21   55 1
    45   22   23 2
    46   22   24 2
    47   22   25 1
    48   25   30 ar
    49   25   26 ar
    50   26   27 ar
    51   26   35 1
    52   27   28 ar
    53   27   56 1
    54   28   29 ar
    55   28   33 1
    56   29   30 ar
    57   29   32 1
    58   30   31 1
    59   31   57 1
    60   31   58 1
    61   31   59 1
    62   32   60 1
    63   32   61 1
    64   32   62 1
    65   33   34 1
    66   34   63 1
    67   34   64 1
    68   34   65 1
    69   35   66 1
    70   35   67 1
    71   35   68 1
    72   36   69 1
    73   36   70 1
    74   71   72 1
@<TRIPOS>MOLECULE
ZINC03834137
   57    59     0     0     0
SMALL
USER_CHARGES

@<TRIPOS>ATOM
      1 H1          3.0154   13.4269   -1.0480 H         1 <0>         0.4457
      2 C1          0.9888   13.4520   -0.8554 C.cat     1 <0>         0.5992
      3 C2         -0.2379   12.6972   -1.1996 C.ar      1 <0>        -0.1546
      4 C3         -1.4876   13.1746   -0.8051 C.ar      1 <0>        -0.0546
      5 C4         -2.6269   12.4672   -1.1291 C.ar      1 <0>        -0.1046
      6 C5         -2.5320   11.2892   -1.8487 C.ar      1 <0>        -0.0423
      7 C6         -1.2950   10.8078   -2.2378 C.ar      1 <0>        -0.0743
      8 C7         -0.1482   11.5065   -1.9197 C.ar      1 <0>        -0.0613
      9 C8         -1.1999    9.5207   -3.0160 C.3       1 <0>        -0.0853
     10 C9         -1.0602    8.3467   -2.0450 C.3       1 <0>         0.1647
     11 H2         -1.8852    8.3640   -1.3328 H         1 <0>         0.1363
     12 C10        -1.0885    7.0516   -2.8150 C.2       1 <0>         0.4342
     13 O1         -0.1445    6.2990   -2.7664 O.2       1 <0>        -0.4741
     14 O2         -2.1624    6.7343   -3.5551 O.3       1 <0>        -0.3491
     15 C11        -2.1202    5.4713   -4.2702 C.3       1 <0>         0.0838
     16 C12        -3.5396    4.9179   -4.4121 C.3       1 <0>        -0.1524
     17 C13        -1.5176    5.6914   -5.6592 C.3       1 <0>        -0.1710
     18 N1          0.2100    8.4581   -1.3235 N.pl3     1 <0>        -1.0975
     19 S1          0.3098    7.9743    0.2571 S.o2      1 <0>         2.6876
     20 O3         -0.7879    8.5707    0.9344 O.2       1 <0>        -0.9488
     21 O4          1.6567    8.1800    0.6605 O.2       1 <0>        -0.9478
     22 C14         0.0351    6.2341    0.2876 C.ar      1 <0>        -0.6659
     23 C15         1.1187    5.3659    0.1660 C.ar      1 <0>        -0.0346
     24 C16         0.9411    4.0167    0.1858 C.ar      1 <0>        -0.1088
     25 C17        -0.3528    3.4876    0.3306 C.ar      1 <0>        -0.0068
     26 C18        -0.5756    2.1002    0.3549 C.ar      1 <0>        -0.1189
     27 C19        -1.8427    1.6241    0.4963 C.ar      1 <0>        -0.0896
     28 C20        -2.9268    2.4924    0.6123 C.ar      1 <0>        -0.1168
     29 C21        -2.7485    3.8415    0.5988 C.ar      1 <0>        -0.0945
     30 C22        -1.4545    4.3705    0.4541 C.ar      1 <0>        -0.0770
     31 C23        -1.2319    5.7579    0.4290 C.ar      1 <0>         0.0099
     32 N2          0.8970   14.6283   -0.1439 N.pl3     1 <0>        -0.7788
     33 H3         -1.5633   14.0965   -0.2475 H         1 <0>         0.1395
     34 H4         -3.5952   12.8356   -0.8239 H         1 <0>         0.1521
     35 H5         -3.4269   10.7411   -2.1038 H         1 <0>         0.1511
     36 H6          0.8168   11.1317   -2.2275 H         1 <0>         0.1334
     37 H7         -0.3295    9.5558   -3.6713 H         1 <0>         0.0992
     38 H8         -2.1010    9.3911   -3.6154 H         1 <0>         0.1195
     39 H9         -1.5068    4.7605   -3.7164 H         1 <0>         0.0868
     40 H10        -4.1530    5.6286   -4.9659 H         1 <0>         0.0706
     41 H11        -3.5080    3.9697   -4.9488 H         1 <0>         0.0823
     42 H12        -3.9690    4.7610   -3.4225 H         1 <0>         0.0657
     43 H13        -1.4858    4.7432   -6.1959 H         1 <0>         0.0791
     44 H14        -2.1309    6.4022   -6.2129 H         1 <0>         0.0686
     45 H15        -0.5063    6.0856   -5.5581 H         1 <0>         0.0604
     46 H16         0.9926    8.8153   -1.7717 H         1 <0>         0.4215
     47 H17         2.1140    5.7698    0.0549 H         1 <0>         0.1366
     48 H18         1.7902    3.3561    0.0901 H         1 <0>         0.1371
     49 H19         0.2543    1.4155    0.2616 H         1 <0>         0.1344
     50 H20        -2.0111    0.5575    0.5143 H         1 <0>         0.1314
     51 H21        -3.9227    2.0885    0.7189 H         1 <0>         0.1312
     52 H22        -3.5975    4.5022    0.6935 H         1 <0>         0.1328
     53 H23        -2.0619    6.4426    0.5220 H         1 <0>         0.1405
     54 H24         0.0289   14.9619    0.1318 H         1 <0>         0.4434
     55 H25         1.7005   15.1227    0.0816 H         1 <0>         0.4320
     56 N3          2.1424   12.9438   -1.2605 N.pl3     1 <0>        -0.7598
     57 H26         2.1583   12.0634   -1.7887 H         1 <0>         0.4587
@<TRIPOS>BOND
     1    1   56 1
     2    2    3 1
     3    2   32 1
     4    2   56 2
     5    3    8 ar
     6    3    4 ar
     7    4    5 ar
     8    4   33 1
     9    5    6 ar
    10    5   34 1
    11    6    7 ar
    12    6   35 1
    13    7    8 ar
    14    7    9 1
    15    8   36 1
    16    9   10 1
    17    9   37 1
    18    9   38 1
    19   10   11 1
    20   10   12 1
    21   10   18 1
    22   12   13 2
    23   12   14 1
    24   14   15 1
    25   15   16 1
    26   15   17 1
    27   15   39 1
    28   16   40 1
    29   16   41 1
    30   16   42 1
    31   17   43 1
    32   17   44 1
    33   17   45 1
    34   18   19 1
    35   18   46 1
    36   19   20 2
    37   19   21 2
    38   19   22 1
    39   22   31 ar
    40   22   23 ar
    41   23   24 ar
    42   23   47 1
    43   24   25 ar
    44   24   48 1
    45   25   30 ar
    46   25   26 ar
    47   26   27 ar
    48   26   49 1
    49   27   28 ar
    50   27   50 1
    51   28   29 ar
    52   28   51 1
    53   29   30 ar
    54   29   52 1
    55   30   31 ar
    56   31   53 1
    57   32   54 1
    58   32   55 1
    59   56   57 1
@<TRIPOS>MOLECULE
ZINC03834138
   66    70     0     0     0
SMALL
USER_CHARGES

@<TRIPOS>ATOM
      1 H1          4.6321    2.0323    0.4537 H         1 <0>         0.4396
      2 C1          2.8466    2.5163   -0.3958 C.cat     1 <0>         0.6014
      3 C2          1.5864    1.9301   -0.9071 C.ar      1 <0>        -0.1604
      4 C3          0.5930    2.7557   -1.4333 C.ar      1 <0>        -0.0445
      5 C4         -0.5790    2.2035   -1.9080 C.ar      1 <0>        -0.0939
      6 C5         -0.7698    0.8339   -1.8627 C.ar      1 <0>         0.0050
      7 C6          0.2118    0.0100   -1.3424 C.ar      1 <0>        -0.0646
      8 C7          1.3884    0.5504   -0.8645 C.ar      1 <0>        -0.0551
      9 C8         -0.0037   -1.4808   -1.2977 C.3       1 <0>        -0.1039
     10 C9          0.5135   -2.1100   -2.5930 C.3       1 <0>         0.1498
     11 H2          1.5549   -1.8257   -2.7445 H         1 <0>         0.1018
     12 C10         0.4112   -3.6105   -2.4984 C.2       1 <0>         0.4916
     13 O1         -0.5222   -4.1884   -3.0142 O.2       1 <0>        -0.4300
     14 N1          1.3567   -4.3103   -1.8406 N.am      1 <0>        -0.5499
     15 C11         2.4598   -3.6125   -1.1709 C.3       1 <0>         0.1486
     16 C12         3.7509   -4.3364   -1.4589 C.ar      1 <0>        -0.1234
     17 C13         4.9476   -3.6540   -1.4687 C.ar      1 <0>        -0.1074
     18 C14         6.1292   -4.3314   -1.7181 C.ar      1 <0>        -0.1369
     19 C15         6.1184   -5.6949   -1.9568 C.ar      1 <0>        -0.1096
     20 C16         4.9273   -6.3905   -1.9565 C.ar      1 <0>        -0.1109
     21 C17         3.7304   -5.7114   -1.7143 C.ar      1 <0>        -0.0097
     22 C18         2.4446   -6.4251   -1.7518 C.2       1 <0>        -0.1638
     23 C19         1.2894   -5.7099   -1.7871 C.2       1 <0>         0.1186
     24 C20        -0.0114   -6.3911   -1.7735 C.2       1 <0>         0.4891
     25 O2         -1.0354   -5.7441   -1.6678 O.co2     1 <0>        -0.5907
     26 N2         -0.2913   -1.6357   -3.7215 N.pl3     1 <0>        -1.0980
     27 S1          0.2181   -0.3372   -4.6140 S.o2      1 <0>         2.6834
     28 O3         -0.7490   -0.1429   -5.6369 O.2       1 <0>        -0.9498
     29 O4          0.5617    0.6833   -3.6867 O.2       1 <0>        -0.9468
     30 C21         1.7126   -0.8115   -5.4177 C.ar      1 <0>        -0.6815
     31 C22         2.9336   -0.5887   -4.7835 C.ar      1 <0>        -0.0514
     32 C23         4.1058   -0.9481   -5.3742 C.ar      1 <0>        -0.1132
     33 C24         4.0892   -1.5423   -6.6477 C.ar      1 <0>        -0.0102
     34 C25         5.2795   -1.9206   -7.2921 C.ar      1 <0>        -0.1219
     35 C26         5.2247   -2.4939   -8.5251 C.ar      1 <0>        -0.0879
     36 C27         4.0041   -2.7117   -9.1617 C.ar      1 <0>        -0.1187
     37 C28         2.8315   -2.3580   -8.5684 C.ar      1 <0>        -0.0879
     38 C29         2.8480   -1.7639   -7.2949 C.ar      1 <0>        -0.0773
     39 C30         1.6578   -1.3848   -6.6508 C.ar      1 <0>         0.0291
     40 N3          3.0393    3.8798   -0.4391 N.pl3     1 <0>        -0.7877
     41 H3          0.7410    3.8248   -1.4696 H         1 <0>         0.1272
     42 H4         -1.3471    2.8413   -2.3198 H         1 <0>         0.1390
     43 H5         -1.6889    0.4064   -2.2355 H         1 <0>         0.1339
     44 H6          2.1539   -0.0938   -0.4581 H         1 <0>         0.1264
     45 H7          0.5364   -1.9007   -0.4490 H         1 <0>         0.1000
     46 H8         -1.0679   -1.6911   -1.1913 H         1 <0>         0.1081
     47 H9          2.5243   -2.5904   -1.5442 H         1 <0>         0.0835
     48 H10         2.2818   -3.5972   -0.0957 H         1 <0>         0.0811
     49 H11         4.9642   -2.5904   -1.2816 H         1 <0>         0.1148
     50 H12         7.0651   -3.7925   -1.7260 H         1 <0>         0.1181
     51 H13         7.0459   -6.2158   -2.1437 H         1 <0>         0.1218
     52 H14         4.9199   -7.4544   -2.1423 H         1 <0>         0.1288
     53 H15         2.4183   -7.5048   -1.7475 H         1 <0>         0.1499
     54 H16        -1.1226   -2.0823   -3.9459 H         1 <0>         0.4344
     55 H17         2.9495   -0.1279   -3.8069 H         1 <0>         0.1313
     56 H18         5.0442   -0.7728   -4.8692 H         1 <0>         0.1331
     57 H19         6.2325   -1.7579   -6.8108 H         1 <0>         0.1322
     58 H20         6.1408   -2.7841   -9.0180 H         1 <0>         0.1303
     59 H21         3.9886   -3.1678  -10.1405 H         1 <0>         0.1317
     60 H22         1.8931   -2.5326   -9.0738 H         1 <0>         0.1362
     61 H23         0.7047   -1.5472   -7.1319 H         1 <0>         0.1463
     62 H24         2.3496    4.4559   -0.8045 H         1 <0>         0.4417
     63 H25         3.8648    4.2639   -0.1043 H         1 <0>         0.4268
     64 N4          3.7479    1.6768    0.0898 N.pl3     1 <0>        -0.7668
     65 H26         3.5568    0.6680    0.1001 H         1 <0>         0.4590
     66 O5         -0.0704   -7.7344   -1.8783 O.co2     1 <0>        -0.7400
@<TRIPOS>BOND
     1    1   64 1
     2    2    3 1
     3    2   40 1
     4    2   64 2
     5    3    8 ar
     6    3    4 ar
     7    4    5 ar
     8    4   41 1
     9    5    6 ar
    10    5   42 1
    11    6    7 ar
    12    6   43 1
    13    7    8 ar
    14    7    9 1
    15    8   44 1
    16    9   10 1
    17    9   45 1
    18    9   46 1
    19   10   11 1
    20   10   12 1
    21   10   26 1
    22   12   13 2
    23   12   14 am
    24   14   23 1
    25   14   15 1
    26   15   16 1
    27   15   47 1
    28   15   48 1
    29   16   21 ar
    30   16   17 ar
    31   17   18 ar
    32   17   49 1
    33   18   19 ar
    34   18   50 1
    35   19   20 ar
    36   19   51 1
    37   20   21 ar
    38   20   52 1
    39   21   22 1
    40   22   23 2
    41   22   53 1
    42   23   24 1
    43   24   25 2
    44   24   66 1
    45   26   27 1
    46   26   54 1
    47   27   28 2
    48   27   29 2
    49   27   30 1
    50   30   39 ar
    51   30   31 ar
    52   31   32 ar
    53   31   55 1
    54   32   33 ar
    55   32   56 1
    56   33   38 ar
    57   33   34 ar
    58   34   35 ar
    59   34   57 1
    60   35   36 ar
    61   35   58 1
    62   36   37 ar
    63   36   59 1
    64   37   38 ar
    65   37   60 1
    66   38   39 ar
    67   39   61 1
    68   40   62 1
    69   40   63 1
    70   64   65 1
@<TRIPOS>MOLECULE
ZINC03834139
   66    70     0     0     0
SMALL
USER_CHARGES

@<TRIPOS>ATOM
      1 H1          0.9905   -1.6421   -1.2684 H         1 <0>         0.4461
      2 C1         -0.3781   -0.2454   -0.7023 C.cat     1 <0>         0.5987
      3 C2         -0.5197    1.1756   -0.3100 C.ar      1 <0>        -0.1528
      4 C3         -1.7762    1.6934    0.0038 C.ar      1 <0>        -0.0547
      5 C4         -1.9010    3.0165    0.3741 C.ar      1 <0>        -0.1037
      6 C5         -0.7846    3.8324    0.4228 C.ar      1 <0>        -0.0462
      7 C6          0.4632    3.3262    0.1071 C.ar      1 <0>        -0.0728
      8 C7          0.6016    2.0026   -0.2586 C.ar      1 <0>        -0.0598
      9 C8          1.6741    4.2215    0.1632 C.3       1 <0>        -0.0890
     10 C9          1.9239    4.8287   -1.2189 C.3       1 <0>         0.1388
     11 H2          1.0185    5.3270   -1.5657 H         1 <0>         0.1250
     12 C10         3.0466    5.8302   -1.1321 C.2       1 <0>         0.4926
     13 O1          4.1271    5.5736   -1.6197 O.2       1 <0>        -0.4876
     14 N1          2.8501    7.0109   -0.5126 N.am      1 <0>        -0.5438
     15 C11         1.5192    7.3784   -0.0102 C.3       1 <0>         0.0910
     16 C12         1.2513    8.8336   -0.4006 C.3       1 <0>        -0.1377
     17 C13         2.2789    9.7303    0.2895 C.3       1 <0>        -0.0805
     18 C14         3.6745    9.2231    0.0386 C.ar      1 <0>        -0.1115
     19 C15         3.9107    7.9114   -0.3421 C.ar      1 <0>         0.1475
     20 C16         5.2119    7.4740   -0.5603 C.ar      1 <0>        -0.1472
     21 C17         6.2702    8.3464   -0.4006 C.ar      1 <0>        -0.1032
     22 C18         6.0337    9.6552   -0.0232 C.ar      1 <0>        -0.1313
     23 C19         4.7413   10.0918    0.1955 C.ar      1 <0>        -0.0999
     24 N2          2.2881    3.7670   -2.1602 N.pl3     1 <0>        -1.0967
     25 S1          1.8004    3.8579   -3.7401 S.o2      1 <0>         2.6881
     26 O2          2.3259    2.7110   -4.3941 O.2       1 <0>        -0.9529
     27 O3          0.4106    4.1534   -3.7198 O.2       1 <0>        -0.9492
     28 C20         2.6020    5.2557   -4.4531 C.ar      1 <0>        -0.6759
     29 C21         1.9788    6.5017   -4.4075 C.ar      1 <0>        -0.0553
     30 C22         2.5730    7.6023   -4.9438 C.ar      1 <0>        -0.1077
     31 C23         3.8285    7.4821   -5.5639 C.ar      1 <0>        -0.0059
     32 C24         4.4699    8.5947   -6.1347 C.ar      1 <0>        -0.1201
     33 C25         5.6857    8.4406   -6.7267 C.ar      1 <0>        -0.0874
     34 C26         6.3064    7.1937   -6.7770 C.ar      1 <0>        -0.1173
     35 C27         5.7150    6.0942   -6.2353 C.ar      1 <0>        -0.0899
     36 C28         4.4597    6.2143   -5.6151 C.ar      1 <0>        -0.0751
     37 C29         3.8177    5.1016   -5.0450 C.ar      1 <0>         0.0389
     38 N3         -1.4880   -1.0602   -0.7521 N.pl3     1 <0>        -0.7785
     39 H3         -2.6490    1.0586   -0.0384 H         1 <0>         0.1399
     40 H4         -2.8728    3.4175    0.6220 H         1 <0>         0.1523
     41 H5         -0.8880    4.8688    0.7088 H         1 <0>         0.1484
     42 H6          1.5767    1.6083   -0.5042 H         1 <0>         0.1334
     43 H7          1.5027    5.0198    0.8851 H         1 <0>         0.1091
     44 H8          2.5436    3.6382    0.4661 H         1 <0>         0.1032
     45 H9          0.7642    6.7318   -0.4575 H         1 <0>         0.0898
     46 H10         1.4942    7.2802    1.0751 H         1 <0>         0.0861
     47 H11         0.2477    9.1184   -0.0848 H         1 <0>         0.0917
     48 H12         1.3388    8.9428   -1.4816 H         1 <0>         0.0755
     49 H13         2.0865    9.7384    1.3624 H         1 <0>         0.0806
     50 H14         2.1896   10.7448   -0.0991 H         1 <0>         0.0840
     51 H15         5.3952    6.4511   -0.8546 H         1 <0>         0.1649
     52 H16         7.2813    8.0066   -0.5698 H         1 <0>         0.1243
     53 H17         6.8612   10.3379    0.1013 H         1 <0>         0.1236
     54 H18         4.5622   11.1152    0.4904 H         1 <0>         0.1263
     55 H19         2.8150    3.0106   -1.8581 H         1 <0>         0.4207
     56 H20         1.0119    6.5958   -3.9358 H         1 <0>         0.1316
     57 H21         2.0800    8.5620   -4.8978 H         1 <0>         0.1345
     58 H22         4.0010    9.5670   -6.1031 H         1 <0>         0.1330
     59 H23         6.1767    9.2973   -7.1642 H         1 <0>         0.1311
     60 H24         7.2710    7.0986   -7.2534 H         1 <0>         0.1313
     61 H25         6.2077    5.1343   -6.2822 H         1 <0>         0.1336
     62 H26         4.2866    4.1292   -5.0767 H         1 <0>         0.1427
     63 H27        -2.3622   -0.7032   -0.5303 H         1 <0>         0.4434
     64 H28        -1.3952   -1.9910   -1.0091 H         1 <0>         0.4322
     65 N4          0.8415   -0.6714   -0.9928 N.pl3     1 <0>        -0.7592
     66 H29         1.6372   -0.0246   -0.9405 H         1 <0>         0.4588
@<TRIPOS>BOND
     1    1   65 1
     2    2    3 1
     3    2   38 1
     4    2   65 2
     5    3    8 ar
     6    3    4 ar
     7    4    5 ar
     8    4   39 1
     9    5    6 ar
    10    5   40 1
    11    6    7 ar
    12    6   41 1
    13    7    8 ar
    14    7    9 1
    15    8   42 1
    16    9   10 1
    17    9   43 1
    18    9   44 1
    19   10   11 1
    20   10   12 1
    21   10   24 1
    22   12   13 2
    23   12   14 am
    24   14   19 1
    25   14   15 1
    26   15   16 1
    27   15   45 1
    28   15   46 1
    29   16   17 1
    30   16   47 1
    31   16   48 1
    32   17   18 1
    33   17   49 1
    34   17   50 1
    35   18   23 ar
    36   18   19 ar
    37   19   20 ar
    38   20   21 ar
    39   20   51 1
    40   21   22 ar
    41   21   52 1
    42   22   23 ar
    43   22   53 1
    44   23   54 1
    45   24   25 1
    46   24   55 1
    47   25   26 2
    48   25   27 2
    49   25   28 1
    50   28   37 ar
    51   28   29 ar
    52   29   30 ar
    53   29   56 1
    54   30   31 ar
    55   30   57 1
    56   31   36 ar
    57   31   32 ar
    58   32   33 ar
    59   32   58 1
    60   33   34 ar
    61   33   59 1
    62   34   35 ar
    63   34   60 1
    64   35   36 ar
    65   35   61 1
    66   36   37 ar
    67   37   62 1
    68   38   63 1
    69   38   64 1
    70   65   66 1
@<TRIPOS>MOLECULE
ZINC03834140
   61    63     0     0     0
SMALL
USER_CHARGES

@<TRIPOS>ATOM
      1 H1          0.8953   12.3650    2.2190 H         1 <0>         0.4435
      2 C1         -0.8038   11.2549    2.3773 C.cat     1 <0>         0.5979
      3 C2         -1.6851   10.3337    1.6237 C.ar      1 <0>        -0.1359
      4 C3         -2.8214    9.7989    2.2304 C.ar      1 <0>        -0.0443
      5 C4         -3.6389    8.9416    1.5231 C.ar      1 <0>        -0.1087
      6 C5         -3.3364    8.6166    0.2126 C.ar      1 <0>        -0.0428
      7 C6         -2.2080    9.1394   -0.3926 C.ar      1 <0>        -0.0755
      8 C7         -1.3825    9.9980    0.3047 C.ar      1 <0>        -0.0108
      9 C8         -1.8823    8.7755   -1.8184 C.3       1 <0>        -0.0994
     10 C9         -0.9955    7.5288   -1.8368 C.3       1 <0>         0.1429
     11 H2         -1.4849    6.7267   -1.2844 H         1 <0>         0.1126
     12 C10        -0.7710    7.0931   -3.2618 C.2       1 <0>         0.5078
     13 O1          0.3546    7.0447   -3.7109 O.2       1 <0>        -0.5162
     14 N1         -1.8210    6.7572   -4.0372 N.am      1 <0>        -0.7240
     15 C11        -1.6026    6.3337   -5.4225 C.3       1 <0>         0.1151
     16 C12        -2.9483    6.0119   -6.0755 C.3       1 <0>        -0.1323
     17 C13        -2.7204    5.5695   -7.5223 C.3       1 <0>        -0.1230
     18 C14        -4.0661    5.2477   -8.1753 C.3       1 <0>        -0.1544
     19 N2          0.2930    7.8369   -1.2115 N.pl3     1 <0>        -1.0986
     20 S1          0.5361    7.5028    0.3922 S.o2      1 <0>         2.6783
     21 O2         -0.5813    8.0335    1.0915 O.2       1 <0>        -0.9458
     22 O3          1.8721    7.8854    0.6887 O.2       1 <0>        -0.9512
     23 C15         0.4608    5.7522    0.5769 C.ar      1 <0>        -0.6748
     24 C16         1.6263    4.9980    0.4526 C.ar      1 <0>        -0.0500
     25 C17         1.6029    3.6442    0.5896 C.ar      1 <0>        -0.1074
     26 C18         0.3869    2.9936    0.8603 C.ar      1 <0>        -0.0100
     27 C19         0.3231    1.5974    1.0078 C.ar      1 <0>        -0.1175
     28 C20        -0.8724    1.0019    1.2692 C.ar      1 <0>        -0.0885
     29 C21        -2.0388    1.7556    1.3879 C.ar      1 <0>        -0.1143
     30 C22        -2.0142    3.1100    1.2571 C.ar      1 <0>        -0.0956
     31 C23        -0.7982    3.7604    0.9866 C.ar      1 <0>        -0.0795
     32 C24        -0.7346    5.1565    0.8382 C.ar      1 <0>         0.0130
     33 N3         -1.1054   11.5847    3.6806 N.pl3     1 <0>        -0.7827
     34 H3         -3.0611   10.0555    3.2518 H         1 <0>         0.1300
     35 H4         -4.5188    8.5264    1.9919 H         1 <0>         0.1415
     36 H5         -3.9817    7.9486   -0.3385 H         1 <0>         0.1385
     37 H6         -0.5038   10.4088   -0.1703 H         1 <0>         0.1199
     38 H7         -1.3556    9.6032   -2.2934 H         1 <0>         0.0980
     39 H8         -2.8054    8.5728   -2.3614 H         1 <0>         0.1034
     40 H9         -2.7212    6.7960   -3.6780 H         1 <0>         0.4021
     41 H10        -1.1133    7.1358   -5.9749 H         1 <0>         0.0735
     42 H11        -0.9708    5.4455   -5.4356 H         1 <0>         0.0722
     43 H12        -3.4377    5.2097   -5.5231 H         1 <0>         0.0704
     44 H13        -3.5802    6.9000   -6.0624 H         1 <0>         0.0709
     45 H14        -2.2310    6.3717   -8.0747 H         1 <0>         0.0665
     46 H15        -2.0885    4.6813   -7.5354 H         1 <0>         0.0663
     47 H16        -3.9036    4.9326   -9.2060 H         1 <0>         0.0591
     48 H17        -4.5554    4.4456   -7.6229 H         1 <0>         0.0552
     49 H18        -4.6978    6.1358   -8.1622 H         1 <0>         0.0552
     50 H19         1.0038    8.2366   -1.7368 H         1 <0>         0.4306
     51 H20         2.5621    5.4955    0.2450 H         1 <0>         0.1384
     52 H21         2.5139    3.0727    0.4904 H         1 <0>         0.1397
     53 H22         1.2180    1.0002    0.9140 H         1 <0>         0.1361
     54 H23        -0.9187   -0.0713    1.3817 H         1 <0>         0.1330
     55 H24        -2.9754    1.2577    1.5912 H         1 <0>         0.1322
     56 H25        -2.9253    3.6814    1.3555 H         1 <0>         0.1332
     57 H26        -1.6297    5.7536    0.9318 H         1 <0>         0.1436
     58 H27        -1.8950   11.2136    4.1046 H         1 <0>         0.4425
     59 H28        -0.5282   12.1881    4.1742 H         1 <0>         0.4296
     60 N4          0.2578   11.7270    1.7423 N.pl3     1 <0>        -0.7658
     61 H29         0.4393   11.4510    0.7701 H         1 <0>         0.4563
@<TRIPOS>BOND
     1    1   60 1
     2    2    3 1
     3    2   33 1
     4    2   60 2
     5    3    8 ar
     6    3    4 ar
     7    4    5 ar
     8    4   34 1
     9    5    6 ar
    10    5   35 1
    11    6    7 ar
    12    6   36 1
    13    7    8 ar
    14    7    9 1
    15    8   37 1
    16    9   10 1
    17    9   38 1
    18    9   39 1
    19   10   11 1
    20   10   12 1
    21   10   19 1
    22   12   13 2
    23   12   14 am
    24   14   15 1
    25   14   40 1
    26   15   16 1
    27   15   41 1
    28   15   42 1
    29   16   17 1
    30   16   43 1
    31   16   44 1
    32   17   18 1
    33   17   45 1
    34   17   46 1
    35   18   47 1
    36   18   48 1
    37   18   49 1
    38   19   20 1
    39   19   50 1
    40   20   21 2
    41   20   22 2
    42   20   23 1
    43   23   32 ar
    44   23   24 ar
    45   24   25 ar
    46   24   51 1
    47   25   26 ar
    48   25   52 1
    49   26   31 ar
    50   26   27 ar
    51   27   28 ar
    52   27   53 1
    53   28   29 ar
    54   28   54 1
    55   29   30 ar
    56   29   55 1
    57   30   31 ar
    58   30   56 1
    59   31   32 ar
    60   32   57 1
    61   33   58 1
    62   33   59 1
    63   60   61 1
@<TRIPOS>MOLECULE
ZINC03834141
   71    73     0     0     0
SMALL
USER_CHARGES

@<TRIPOS>ATOM
      1 H1          3.9994   -7.9140    6.0003 H         1 <0>         0.4452
      2 C1          5.0276   -6.4330    5.0549 C.cat     1 <0>         0.5984
      3 C2          4.8579   -5.2663    4.1589 C.ar      1 <0>        -0.1497
      4 C3          5.9669   -4.5152    3.7695 C.ar      1 <0>        -0.0520
      5 C4          5.8025   -3.4296    2.9342 C.ar      1 <0>        -0.1009
      6 C5          4.5414   -3.0886    2.4783 C.ar      1 <0>        -0.0428
      7 C6          3.4371   -3.8260    2.8655 C.ar      1 <0>        -0.0689
      8 C7          3.5889   -4.9142    3.7006 C.ar      1 <0>        -0.0606
      9 C8          2.0663   -3.4443    2.3694 C.3       1 <0>        -0.0924
     10 C9          1.4255   -2.4590    3.3489 C.3       1 <0>         0.1422
     11 H2          2.0951   -1.6129    3.5034 H         1 <0>         0.1172
     12 C10         0.1176   -1.9680    2.7840 C.2       1 <0>         0.5051
     13 O1         -0.9302   -2.3947    3.2212 O.2       1 <0>        -0.5121
     14 N1          0.1121   -1.0545    1.7930 N.am      1 <0>        -0.6093
     15 C11        -1.1495   -0.6396    1.1644 C.3       1 <0>         0.1123
     16 C12        -1.2514    0.8877    1.2245 C.3       1 <0>        -0.1216
     17 C13        -0.0014    1.5037    0.5918 C.3       1 <0>        -0.0787
     18 C14         1.2373    1.0708    1.3795 C.3       1 <0>        -0.1307
     19 C15         1.3674   -0.4545    1.3211 C.3       1 <0>         0.1005
     20 C16        -0.1136    3.0063    0.6186 C.2       1 <0>         0.4611
     21 O2         -1.0925    3.5306    1.0947 O.2       1 <0>        -0.4989
     22 O3          0.8739    3.7622    0.1135 O.3       1 <0>        -0.3587
     23 C17         0.6982    5.2022    0.1730 C.3       1 <0>         0.0341
     24 N2          1.1836   -3.1302    4.6285 N.pl3     1 <0>        -1.1011
     25 S1          1.8735   -2.5433    6.0147 S.o2      1 <0>         2.6862
     26 O4          1.4413   -3.3880    7.0726 O.2       1 <0>        -0.9539
     27 O5          3.2479   -2.3280    5.7248 O.2       1 <0>        -0.9478
     28 C18         1.1680   -0.9572    6.3167 C.ar      1 <0>        -0.7008
     29 C19         1.9406    0.1808    6.1776 C.ar      1 <0>         0.0240
     30 C20         1.3860    1.4253    6.4101 C.ar      1 <0>        -0.1539
     31 C21         0.0613    1.5316    6.7907 C.ar      1 <0>        -0.0077
     32 C22        -0.7098    0.3934    6.9349 C.ar      1 <0>        -0.1509
     33 C23        -0.1564   -0.8510    6.6981 C.ar      1 <0>         0.0383
     34 C24        -0.9970   -2.0918    6.8553 C.3       1 <0>        -0.1384
     35 C25        -0.5424    2.8882    7.0480 C.3       1 <0>        -0.1298
     36 C26         3.3862    0.0646    5.7678 C.3       1 <0>        -0.1529
     37 N3          6.2828   -6.7784    5.5060 N.pl3     1 <0>        -0.7795
     38 H3          6.9523   -4.7833    4.1209 H         1 <0>         0.1372
     39 H4          6.6604   -2.8470    2.6323 H         1 <0>         0.1495
     40 H5          4.4182   -2.2406    1.8210 H         1 <0>         0.1452
     41 H6          2.7264   -5.4918    3.9991 H         1 <0>         0.1309
     42 H7          1.4456   -4.3370    2.2938 H         1 <0>         0.1007
     43 H8          2.1521   -2.9772    1.3882 H         1 <0>         0.1064
     44 H9         -1.9882   -1.0832    1.7008 H         1 <0>         0.1031
     45 H10        -1.1668   -0.9663    0.1246 H         1 <0>         0.0787
     46 H11        -2.1352    1.2153    0.6772 H         1 <0>         0.0911
     47 H12        -1.3277    1.2065    2.2641 H         1 <0>         0.0784
     48 H13         0.0878    1.1647   -0.4403 H         1 <0>         0.1154
     49 H14         1.1375    1.3880    2.4176 H         1 <0>         0.0762
     50 H15         2.1249    1.5287    0.9430 H         1 <0>         0.0976
     51 H16         2.1893   -0.7758    1.9609 H         1 <0>         0.0875
     52 H17         1.5578   -0.7659    0.2940 H         1 <0>         0.0870
     53 H18         1.5661    5.6927   -0.2676 H         1 <0>         0.1052
     54 H19        -0.1976    5.4821   -0.3813 H         1 <0>         0.0655
     55 H20         0.5940    5.5129    1.2126 H         1 <0>         0.0639
     56 H21         0.6192   -3.9184    4.6637 H         1 <0>         0.4243
     57 H22         1.9883    2.3147    6.2973 H         1 <0>         0.1326
     58 H23        -1.7448    0.4764    7.2322 H         1 <0>         0.1336
     59 H24        -0.9206   -2.4550    7.8801 H         1 <0>         0.0954
     60 H25        -2.0372   -1.8570    6.6296 H         1 <0>         0.0852
     61 H26        -0.6412   -2.8609    6.1698 H         1 <0>         0.0647
     62 H27        -0.4097    3.1519    8.0972 H         1 <0>         0.0838
     63 H28        -0.0479    3.6306    6.4214 H         1 <0>         0.0745
     64 H29        -1.6060    2.8634    6.8112 H         1 <0>         0.0757
     65 H30         3.4466   -0.1020    4.6923 H         1 <0>         0.0776
     66 H31         3.9113    0.9851    6.0229 H         1 <0>         0.0713
     67 H32         3.8461   -0.7732    6.2917 H         1 <0>         0.1189
     68 H33         7.0554   -6.2573    5.2367 H         1 <0>         0.4432
     69 H34         6.3940   -7.5426    6.0929 H         1 <0>         0.4315
     70 N4          3.9342   -7.1027    5.3854 N.pl3     1 <0>        -0.7608
     71 H35         3.0208   -6.8053    5.0229 H         1 <0>         0.4586
@<TRIPOS>BOND
     1    1   70 1
     2    2    3 1
     3    2   37 1
     4    2   70 2
     5    3    8 ar
     6    3    4 ar
     7    4    5 ar
     8    4   38 1
     9    5    6 ar
    10    5   39 1
    11    6    7 ar
    12    6   40 1
    13    7    8 ar
    14    7    9 1
    15    8   41 1
    16    9   10 1
    17    9   42 1
    18    9   43 1
    19   10   11 1
    20   10   12 1
    21   10   24 1
    22   12   13 2
    23   12   14 am
    24   14   19 1
    25   14   15 1
    26   15   16 1
    27   15   44 1
    28   15   45 1
    29   16   17 1
    30   16   46 1
    31   16   47 1
    32   17   18 1
    33   17   20 1
    34   17   48 1
    35   18   19 1
    36   18   49 1
    37   18   50 1
    38   19   51 1
    39   19   52 1
    40   20   21 2
    41   20   22 1
    42   22   23 1
    43   23   53 1
    44   23   54 1
    45   23   55 1
    46   24   25 1
    47   24   56 1
    48   25   26 2
    49   25   27 2
    50   25   28 1
    51   28   33 ar
    52   28   29 ar
    53   29   30 ar
    54   29   36 1
    55   30   31 ar
    56   30   57 1
    57   31   32 ar
    58   31   35 1
    59   32   33 ar
    60   32   58 1
    61   33   34 1
    62   34   59 1
    63   34   60 1
    64   34   61 1
    65   35   62 1
    66   35   63 1
    67   35   64 1
    68   36   65 1
    69   36   66 1
    70   36   67 1
    71   37   68 1
    72   37   69 1
    73   70   71 1
@<TRIPOS>MOLECULE
ZINC03834142
   72    76     0     0     0
SMALL
USER_CHARGES

@<TRIPOS>ATOM
      1 H1          2.2939   12.3245   -4.7823 H         1 <0>         0.4435
      2 C1          3.4164   10.6265   -4.8184 C.cat     1 <0>         0.5979
      3 C2          3.5000    9.2562   -4.2633 C.ar      1 <0>        -0.1357
      4 C3          4.5497    8.4146   -4.6312 C.ar      1 <0>        -0.0434
      5 C4          4.6224    7.1390   -4.1103 C.ar      1 <0>        -0.1067
      6 C5          3.6597    6.6961   -3.2207 C.ar      1 <0>        -0.0427
      7 C6          2.6134    7.5242   -2.8563 C.ar      1 <0>        -0.0745
      8 C7          2.5299    8.8021   -3.3705 C.ar      1 <0>        -0.0102
      9 C8          1.5662    7.0321   -1.8909 C.3       1 <0>        -0.1165
     10 C9          0.4268    6.3700   -2.6683 C.3       1 <0>         0.1493
     11 H2          0.8313    5.5854   -3.3078 H         1 <0>         0.1170
     12 C10        -0.5597    5.7699   -1.6999 C.2       1 <0>         0.5124
     13 O1         -1.7134    6.1438   -1.6999 O.2       1 <0>        -0.4885
     14 N1         -0.1599    4.8176   -0.8340 N.am      1 <0>        -0.5995
     15 C11         1.2446    4.4029   -0.7516 C.3       1 <0>         0.1439
     16 C12         1.3270    2.8984   -0.6871 C.ar      1 <0>        -0.1104
     17 C13         2.5743    2.3105   -0.8481 C.ar      1 <0>        -0.1100
     18 C14         2.7172    0.9402   -0.7751 C.ar      1 <0>        -0.1144
     19 C15         1.6094    0.1471   -0.5399 C.ar      1 <0>        -0.1070
     20 C16         0.3680    0.7293   -0.3911 C.ar      1 <0>        -0.1126
     21 C17         0.2212    2.1094   -0.4637 C.ar      1 <0>        -0.0634
     22 C18        -1.1672    2.6728   -0.3122 C.3       1 <0>        -0.0902
     23 C19        -1.1157    4.1521    0.0666 C.3       1 <0>         0.1580
     24 H3         -0.7834    4.2568    1.0993 H         1 <0>         0.1171
     25 C20        -2.4820    4.7672   -0.0940 C.2       1 <0>         0.4741
     26 O2         -3.1277    4.5524   -1.0924 O.2       1 <0>        -0.4801
     27 O3         -2.9817    5.5536    0.8722 O.3       1 <0>        -0.3585
     28 C21        -4.3035    6.1119    0.6499 C.3       1 <0>         0.0423
     29 N2         -0.2486    7.3737   -3.4944 N.pl3     1 <0>        -1.0986
     30 S1          0.1886    7.5720   -5.0793 S.o2      1 <0>         2.6790
     31 O4         -0.6548    8.5852   -5.6095 O.2       1 <0>        -0.9541
     32 O5          1.6059    7.6726   -5.1000 O.2       1 <0>        -0.9429
     33 C22        -0.2227    6.0813   -5.9236 C.ar      1 <0>        -0.6827
     34 C23         0.7201    5.0584   -6.0094 C.ar      1 <0>        -0.0560
     35 C24         0.4325    3.8924   -6.6496 C.ar      1 <0>        -0.1090
     36 C25        -0.8289    3.7183   -7.2443 C.ar      1 <0>        -0.0093
     37 C26        -1.1598    2.5311   -7.9197 C.ar      1 <0>        -0.1214
     38 C27        -2.3914    2.3979   -8.4832 C.ar      1 <0>        -0.0851
     39 C28        -3.3322    3.4229   -8.4022 C.ar      1 <0>        -0.1152
     40 C29        -3.0469    4.5866   -7.7567 C.ar      1 <0>        -0.0909
     41 C30        -1.7856    4.7606   -7.1619 C.ar      1 <0>        -0.0784
     42 C31        -1.4544    5.9481   -6.4872 C.ar      1 <0>         0.0290
     43 N3          4.3765   11.0723   -5.7004 N.pl3     1 <0>        -0.7825
     44 H4          5.3042    8.7608   -5.3220 H         1 <0>         0.1303
     45 H5          5.4350    6.4866   -4.3941 H         1 <0>         0.1422
     46 H6          3.7233    5.6983   -2.8122 H         1 <0>         0.1376
     47 H7          1.7146    9.4491   -3.0823 H         1 <0>         0.1196
     48 H8          1.1749    7.8737   -1.3191 H         1 <0>         0.1007
     49 H9          2.0115    6.3064   -1.2104 H         1 <0>         0.1126
     50 H10         1.6970    4.8297    0.1435 H         1 <0>         0.0983
     51 H11         1.7799    4.7579   -1.6324 H         1 <0>         0.1024
     52 H12         3.4393    2.9305   -1.0317 H         1 <0>         0.1262
     53 H13         3.6903    0.4890   -0.9014 H         1 <0>         0.1284
     54 H14         1.7152   -0.9259   -0.4773 H         1 <0>         0.1281
     55 H15        -0.4967    0.1076   -0.2121 H         1 <0>         0.1267
     56 H16        -1.7036    2.5625   -1.2546 H         1 <0>         0.0991
     57 H17        -1.6944    2.1222    0.4669 H         1 <0>         0.0990
     58 H18        -4.2919    6.7259   -0.2507 H         1 <0>         0.0654
     59 H19        -5.0240    5.3030    0.5288 H         1 <0>         0.0625
     60 H20        -4.5869    6.7260    1.5046 H         1 <0>         0.1012
     61 H21        -0.9520    7.9221   -3.1131 H         1 <0>         0.4298
     62 H22         1.6918    5.1913   -5.5573 H         1 <0>         0.1365
     63 H23         1.1717    3.1069   -6.7049 H         1 <0>         0.1376
     64 H24        -0.4407    1.7284   -7.9904 H         1 <0>         0.1354
     65 H25        -2.6432    1.4844   -9.0014 H         1 <0>         0.1331
     66 H26        -4.3022    3.2919   -8.8588 H         1 <0>         0.1333
     67 H27        -3.7858    5.3723   -7.7023 H         1 <0>         0.1353
     68 H28        -2.1735    6.7507   -6.4159 H         1 <0>         0.1434
     69 H29         5.1071   10.4885   -5.9577 H         1 <0>         0.4426
     70 H30         4.3217   11.9700   -6.0640 H         1 <0>         0.4296
     71 N4          2.3952   11.3733   -4.4278 N.pl3     1 <0>        -0.7661
     72 H31         1.7053   10.9951   -3.7681 H         1 <0>         0.4561
@<TRIPOS>BOND
     1    1   71 1
     2    2    3 1
     3    2   43 1
     4    2   71 2
     5    3    8 ar
     6    3    4 ar
     7    4    5 ar
     8    4   44 1
     9    5    6 ar
    10    5   45 1
    11    6    7 ar
    12    6   46 1
    13    7    8 ar
    14    7    9 1
    15    8   47 1
    16    9   10 1
    17    9   48 1
    18    9   49 1
    19   10   11 1
    20   10   12 1
    21   10   29 1
    22   12   13 2
    23   12   14 am
    24   14   23 1
    25   14   15 1
    26   15   16 1
    27   15   50 1
    28   15   51 1
    29   16   21 ar
    30   16   17 ar
    31   17   18 ar
    32   17   52 1
    33   18   19 ar
    34   18   53 1
    35   19   20 ar
    36   19   54 1
    37   20   21 ar
    38   20   55 1
    39   21   22 1
    40   22   23 1
    41   22   56 1
    42   22   57 1
    43   23   24 1
    44   23   25 1
    45   25   26 2
    46   25   27 1
    47   27   28 1
    48   28   58 1
    49   28   59 1
    50   28   60 1
    51   29   30 1
    52   29   61 1
    53   30   31 2
    54   30   32 2
    55   30   33 1
    56   33   42 ar
    57   33   34 ar
    58   34   35 ar
    59   34   62 1
    60   35   36 ar
    61   35   63 1
    62   36   41 ar
    63   36   37 ar
    64   37   38 ar
    65   37   64 1
    66   38   39 ar
    67   38   65 1
    68   39   40 ar
    69   39   66 1
    70   40   41 ar
    71   40   67 1
    72   41   42 ar
    73   42   68 1
    74   43   69 1
    75   43   70 1
    76   71   72 1
@<TRIPOS>MOLECULE
ZINC03834143
   62    65     0     0     0
SMALL
USER_CHARGES

@<TRIPOS>ATOM
      1 H1         -3.1921   -4.1871   -0.8468 H         1 <0>         0.4458
      2 C1         -1.3805   -4.8510   -0.1972 C.cat     1 <0>         0.5989
      3 C2          0.0752   -4.6032   -0.3083 C.ar      1 <0>        -0.1536
      4 C3          0.9770   -5.4023    0.3943 C.ar      1 <0>        -0.0559
      5 C4          2.3322   -5.1669    0.2864 C.ar      1 <0>        -0.1037
      6 C5          2.7975   -4.1441   -0.5209 C.ar      1 <0>        -0.0460
      7 C6          1.9078   -3.3447   -1.2155 C.ar      1 <0>        -0.0717
      8 C7          0.5499   -3.5703   -1.1158 C.ar      1 <0>        -0.0610
      9 C8          2.4226   -2.2288   -2.0879 C.3       1 <0>        -0.0886
     10 C9          2.5282   -0.9443   -1.2635 C.3       1 <0>         0.1375
     11 H2          3.1579   -1.1227   -0.3919 H         1 <0>         0.1211
     12 C10         3.1363    0.1459   -2.1078 C.2       1 <0>         0.4925
     13 O1          2.4293    1.0058   -2.5892 O.2       1 <0>        -0.5035
     14 N1          4.4658    0.1652   -2.3281 N.am      1 <0>        -0.6061
     15 C11         5.0887    1.2829   -3.0503 C.3       1 <0>         0.1124
     16 C12         6.2289    1.8465   -2.1888 C.3       1 <0>        -0.1355
     17 C13         7.1948    0.7155   -1.8280 C.3       1 <0>        -0.1221
     18 C14         6.4559   -0.3480   -1.0125 C.3       1 <0>        -0.1388
     19 C15         5.3189   -0.9337   -1.8558 C.3       1 <0>         0.0975
     20 N2          1.1919   -0.5342   -0.8248 N.pl3     1 <0>        -1.0968
     21 S1          0.9859    0.1590    0.6649 S.o2      1 <0>         2.6913
     22 O2          1.6876   -0.6568    1.5930 O.2       1 <0>        -0.9539
     23 O3         -0.4010    0.4398    0.7939 O.2       1 <0>        -0.9501
     24 C16         1.8138    1.7141    0.6348 C.ar      1 <0>        -0.6797
     25 C17         2.8746    1.9405    1.4575 C.ar      1 <0>         0.0102
     26 C18         3.5460    3.1613    1.4428 C.ar      1 <0>        -0.1540
     27 C19         3.1527    4.1676    0.6148 C.ar      1 <0>        -0.0306
     28 C20         2.0579    3.9732   -0.2441 C.ar      1 <0>        -0.0728
     29 C21         1.3791    2.7290   -0.2341 C.ar      1 <0>         0.0460
     30 C22         0.2836    2.5350   -1.0929 C.ar      1 <0>        -0.1202
     31 C23        -0.1098    3.5412   -1.9204 C.ar      1 <0>        -0.0791
     32 C24         0.5575    4.7649   -1.9299 C.ar      1 <0>        -0.1180
     33 C25         1.6221    4.9889   -1.1124 C.ar      1 <0>        -0.0917
     34 N3         -1.8466   -5.8723    0.6016 N.pl3     1 <0>        -0.7788
     35 H3          0.6153   -6.2040    1.0211 H         1 <0>         0.1396
     36 H4          3.0315   -5.7848    0.8303 H         1 <0>         0.1519
     37 H5          3.8594   -3.9664   -0.6056 H         1 <0>         0.1478
     38 H6         -0.1436   -2.9481   -1.6619 H         1 <0>         0.1337
     39 H7          1.7357   -2.0714   -2.9195 H         1 <0>         0.1015
     40 H8          3.4064   -2.4944   -2.4746 H         1 <0>         0.1087
     41 H9          5.4866    0.9273   -4.0008 H         1 <0>         0.0712
     42 H10         4.3464    2.0604   -3.2307 H         1 <0>         0.0934
     43 H11         5.8189    2.2797   -1.2764 H         1 <0>         0.0666
     44 H12         6.7614    2.6147   -2.7495 H         1 <0>         0.0780
     45 H13         8.0196    1.1165   -1.2390 H         1 <0>         0.0699
     46 H14         7.5853    0.2665   -2.7412 H         1 <0>         0.0673
     47 H15         6.0436    0.1058   -0.1113 H         1 <0>         0.0690
     48 H16         7.1498   -1.1418   -0.7359 H         1 <0>         0.0807
     49 H17         4.7286   -1.6192   -1.2478 H         1 <0>         0.0807
     50 H18         5.7353   -1.4665   -2.7108 H         1 <0>         0.0792
     51 H19         0.4278   -0.6688   -1.4070 H         1 <0>         0.4192
     52 H20         3.2040    1.1603    2.1277 H         1 <0>         0.1415
     53 H21         4.3878    3.3133    2.1021 H         1 <0>         0.1361
     54 H22         3.6796    5.1103    0.6178 H         1 <0>         0.1373
     55 H23        -0.2435    1.5924   -1.0960 H         1 <0>         0.1221
     56 H24        -0.9519    3.3895   -2.5794 H         1 <0>         0.1276
     57 H25         0.2249    5.5469   -2.5965 H         1 <0>         0.1290
     58 H26         2.1292    5.9423   -1.1304 H         1 <0>         0.1319
     59 H27        -1.2212   -6.4290    1.0912 H         1 <0>         0.4433
     60 H28        -2.8001   -6.0346    0.6743 H         1 <0>         0.4321
     61 N4         -2.1813   -4.0564   -0.8904 N.pl3     1 <0>        -0.7593
     62 H29        -1.7850   -3.3087   -1.4718 H         1 <0>         0.4590
@<TRIPOS>BOND
     1    1   61 1
     2    2    3 1
     3    2   34 1
     4    2   61 2
     5    3    8 ar
     6    3    4 ar
     7    4    5 ar
     8    4   35 1
     9    5    6 ar
    10    5   36 1
    11    6    7 ar
    12    6   37 1
    13    7    8 ar
    14    7    9 1
    15    8   38 1
    16    9   10 1
    17    9   39 1
    18    9   40 1
    19   10   11 1
    20   10   12 1
    21   10   20 1
    22   12   13 2
    23   12   14 am
    24   14   19 1
    25   14   15 1
    26   15   16 1
    27   15   41 1
    28   15   42 1
    29   16   17 1
    30   16   43 1
    31   16   44 1
    32   17   18 1
    33   17   45 1
    34   17   46 1
    35   18   19 1
    36   18   47 1
    37   18   48 1
    38   19   49 1
    39   19   50 1
    40   20   21 1
    41   20   51 1
    42   21   22 2
    43   21   23 2
    44   21   24 1
    45   24   29 ar
    46   24   25 ar
    47   25   26 ar
    48   25   52 1
    49   26   27 ar
    50   26   53 1
    51   27   28 ar
    52   27   54 1
    53   28   33 ar
    54   28   29 ar
    55   29   30 ar
    56   30   31 ar
    57   30   55 1
    58   31   32 ar
    59   31   56 1
    60   32   33 ar
    61   32   57 1
    62   33   58 1
    63   34   59 1
    64   34   60 1
    65   61   62 1
@<TRIPOS>MOLECULE
ZINC03834144
   64    67     0     0     0
SMALL
USER_CHARGES

@<TRIPOS>ATOM
      1 H1         -3.7645   -8.1799   -3.1182 H         1 <0>         0.4426
      2 C1         -2.1625   -9.0265   -2.1902 C.cat     1 <0>         0.6029
      3 C2         -1.0525   -8.7356   -1.2541 C.ar      1 <0>        -0.1550
      4 C3         -0.1487   -9.7394   -0.9063 C.ar      1 <0>        -0.0608
      5 C4          0.8835   -9.4624   -0.0337 C.ar      1 <0>        -0.1088
      6 C5          1.0232   -8.1917    0.4958 C.ar      1 <0>        -0.0451
      7 C6          0.1303   -7.1920    0.1543 C.ar      1 <0>        -0.0621
      8 C7         -0.9098   -7.4585   -0.7128 C.ar      1 <0>        -0.0594
      9 C8          0.2899   -5.8106    0.7351 C.3       1 <0>        -0.1007
     10 C9          1.1842   -4.9725   -0.1806 C.3       1 <0>         0.1428
     11 H2          0.7705   -4.9697   -1.1890 H         1 <0>         0.1095
     12 C10         1.2513   -3.5594    0.3388 C.2       1 <0>         0.4734
     13 O1          2.2943   -3.1239    0.7785 O.2       1 <0>        -0.4330
     14 N1          0.1522   -2.7797    0.3147 N.am      1 <0>        -0.5961
     15 C11        -1.1484   -3.3316   -0.0886 C.3       1 <0>         0.0985
     16 C12        -1.7246   -2.4650   -1.2128 C.3       1 <0>        -0.1339
     17 C13        -1.7762   -1.0066   -0.7518 C.3       1 <0>        -0.1190
     18 C14        -0.3596   -0.5171   -0.4422 C.3       1 <0>        -0.1165
     19 C15         0.2320   -1.3617    0.6907 C.3       1 <0>         0.1005
     20 H3         -0.3338   -1.1919    1.6067 H         1 <0>         0.0629
     21 C16         1.6728   -0.9770    0.9081 C.2       1 <0>         0.4829
     22 O2          2.4655   -1.0661    0.0007 O.co2     1 <0>        -0.5993
     23 N2          2.5314   -5.5475   -0.2071 N.pl3     1 <0>        -1.0949
     24 S1          3.4256   -5.4981   -1.6001 S.o2      1 <0>         2.6942
     25 O3          4.6765   -6.1026   -1.3014 O.2       1 <0>        -0.9607
     26 O4          2.5814   -5.9687   -2.6416 O.2       1 <0>        -0.9689
     27 C17         3.7558   -3.8024   -1.9471 C.ar      1 <0>        -0.6655
     28 C18         2.8671   -3.0782   -2.7397 C.ar      1 <0>        -0.0475
     29 C19         3.0898   -1.7657   -3.0222 C.ar      1 <0>        -0.0900
     30 C20         4.2381   -1.1311   -2.5184 C.ar      1 <0>         0.0252
     31 C21         4.5052    0.2209   -2.7944 C.ar      1 <0>        -0.1152
     32 C22         5.6271    0.8023   -2.2891 C.ar      1 <0>        -0.0954
     33 C23         6.5186    0.0767   -1.5009 C.ar      1 <0>        -0.1261
     34 C24         6.2928   -1.2341   -1.2133 C.ar      1 <0>        -0.0846
     35 C25         5.1446   -1.8689   -1.7170 C.ar      1 <0>        -0.0548
     36 C26         4.8778   -3.2210   -1.4417 C.ar      1 <0>         0.0461
     37 N3         -2.3040  -10.2907   -2.7194 N.pl3     1 <0>        -0.7832
     38 H4         -0.2567  -10.7316   -1.3190 H         1 <0>         0.1365
     39 H5          1.5839  -10.2387    0.2364 H         1 <0>         0.1495
     40 H6          1.8328   -7.9795    1.1782 H         1 <0>         0.1471
     41 H7         -1.6090   -6.6783   -0.9753 H         1 <0>         0.1358
     42 H8          0.7462   -5.8821    1.7224 H         1 <0>         0.1043
     43 H9         -0.6882   -5.3371    0.8203 H         1 <0>         0.1091
     44 H10        -1.8283   -3.3244    0.7633 H         1 <0>         0.0669
     45 H11        -1.0195   -4.3537   -0.4446 H         1 <0>         0.0710
     46 H12        -2.7311   -2.8057   -1.4553 H         1 <0>         0.0661
     47 H13        -1.0902   -2.5452   -2.0955 H         1 <0>         0.0665
     48 H14        -2.3907   -0.9309    0.1454 H         1 <0>         0.0606
     49 H15        -2.2085   -0.3916   -1.5410 H         1 <0>         0.0606
     50 H16        -0.3947    0.5285   -0.1365 H         1 <0>         0.0670
     51 H17         0.2620   -0.6158   -1.3322 H         1 <0>         0.0703
     52 H18         2.8996   -5.9574    0.5913 H         1 <0>         0.4209
     53 H19         1.9863   -3.5647   -3.1320 H         1 <0>         0.1180
     54 H20         2.3904   -1.2160   -3.6348 H         1 <0>         0.1212
     55 H21         3.8232    0.7955   -3.4036 H         1 <0>         0.1233
     56 H22         5.8297    1.8415   -2.5023 H         1 <0>         0.1209
     57 H23         7.4020    0.5619   -1.1129 H         1 <0>         0.1218
     58 H24         6.9924   -1.7838   -0.6009 H         1 <0>         0.1256
     59 H25         5.5594   -3.7955   -0.8321 H         1 <0>         0.1332
     60 H26        -1.6765  -10.9902   -2.4789 H         1 <0>         0.4423
     61 H27        -3.0311  -10.4813   -3.3326 H         1 <0>         0.4294
     62 N4         -2.9845   -8.0293   -2.4783 N.pl3     1 <0>        -0.7599
     63 H28        -2.8368   -7.1044   -2.0576 H         1 <0>         0.4608
     64 O5          2.0754   -0.5353    2.1101 O.co2     1 <0>        -0.7741
@<TRIPOS>BOND
     1    1   62 1
     2    2    3 1
     3    2   37 1
     4    2   62 2
     5    3    8 ar
     6    3    4 ar
     7    4    5 ar
     8    4   38 1
     9    5    6 ar
    10    5   39 1
    11    6    7 ar
    12    6   40 1
    13    7    8 ar
    14    7    9 1
    15    8   41 1
    16    9   10 1
    17    9   42 1
    18    9   43 1
    19   10   11 1
    20   10   12 1
    21   10   23 1
    22   12   13 2
    23   12   14 am
    24   14   19 1
    25   14   15 1
    26   15   16 1
    27   15   44 1
    28   15   45 1
    29   16   17 1
    30   16   46 1
    31   16   47 1
    32   17   18 1
    33   17   48 1
    34   17   49 1
    35   18   19 1
    36   18   50 1
    37   18   51 1
    38   19   20 1
    39   19   21 1
    40   21   22 2
    41   21   64 1
    42   23   24 1
    43   23   52 1
    44   24   25 2
    45   24   26 2
    46   24   27 1
    47   27   36 ar
    48   27   28 ar
    49   28   29 ar
    50   28   53 1
    51   29   30 ar
    52   29   54 1
    53   30   35 ar
    54   30   31 ar
    55   31   32 ar
    56   31   55 1
    57   32   33 ar
    58   32   56 1
    59   33   34 ar
    60   33   57 1
    61   34   35 ar
    62   34   58 1
    63   35   36 ar
    64   36   59 1
    65   37   60 1
    66   37   61 1
    67   62   63 1
@<TRIPOS>MOLECULE
ZINC03834145
   51    53     0     0     0
SMALL
USER_CHARGES

@<TRIPOS>ATOM
      1 H1          3.0154   13.4269   -1.0480 H         1 <0>         0.4458
      2 C1          0.9888   13.4520   -0.8554 C.cat     1 <0>         0.5992
      3 C2         -0.2379   12.6972   -1.1996 C.ar      1 <0>        -0.1546
      4 C3         -1.4876   13.1746   -0.8051 C.ar      1 <0>        -0.0545
      5 C4         -2.6269   12.4672   -1.1291 C.ar      1 <0>        -0.1046
      6 C5         -2.5320   11.2892   -1.8487 C.ar      1 <0>        -0.0423
      7 C6         -1.2950   10.8078   -2.2378 C.ar      1 <0>        -0.0747
      8 C7         -0.1482   11.5065   -1.9197 C.ar      1 <0>        -0.0613
      9 C8         -1.1999    9.5207   -3.0160 C.3       1 <0>        -0.0855
     10 C9         -1.0602    8.3467   -2.0450 C.3       1 <0>         0.1653
     11 H2         -1.8852    8.3640   -1.3328 H         1 <0>         0.1373
     12 C10        -1.0885    7.0516   -2.8150 C.2       1 <0>         0.4320
     13 O1         -0.1445    6.2990   -2.7664 O.2       1 <0>        -0.4728
     14 O2         -2.1624    6.7343   -3.5551 O.3       1 <0>        -0.3543
     15 C11        -2.1202    5.4713   -4.2702 C.3       1 <0>         0.0353
     16 N1          0.2100    8.4581   -1.3235 N.pl3     1 <0>        -1.0976
     17 S1          0.3098    7.9743    0.2571 S.o2      1 <0>         2.6878
     18 O3         -0.7879    8.5707    0.9344 O.2       1 <0>        -0.9484
     19 O4          1.6567    8.1800    0.6605 O.2       1 <0>        -0.9475
     20 C12         0.0351    6.2341    0.2876 C.ar      1 <0>        -0.6663
     21 C13         1.1187    5.3659    0.1660 C.ar      1 <0>        -0.0350
     22 C14         0.9411    4.0167    0.1858 C.ar      1 <0>        -0.1087
     23 C15        -0.3528    3.4876    0.3306 C.ar      1 <0>        -0.0070
     24 C16        -0.5756    2.1002    0.3549 C.ar      1 <0>        -0.1190
     25 C17        -1.8427    1.6241    0.4963 C.ar      1 <0>        -0.0896
     26 C18        -2.9268    2.4924    0.6123 C.ar      1 <0>        -0.1168
     27 C19        -2.7485    3.8415    0.5988 C.ar      1 <0>        -0.0947
     28 C20        -1.4545    4.3705    0.4541 C.ar      1 <0>        -0.0776
     29 C21        -1.2319    5.7579    0.4290 C.ar      1 <0>         0.0096
     30 N2          0.8970   14.6283   -0.1439 N.pl3     1 <0>        -0.7788
     31 H3         -1.5633   14.0965   -0.2475 H         1 <0>         0.1395
     32 H4         -3.5952   12.8356   -0.8239 H         1 <0>         0.1521
     33 H5         -3.4269   10.7411   -2.1038 H         1 <0>         0.1513
     34 H6          0.8168   11.1317   -2.2275 H         1 <0>         0.1335
     35 H7         -0.3295    9.5558   -3.6713 H         1 <0>         0.0996
     36 H8         -2.1010    9.3911   -3.6154 H         1 <0>         0.1198
     37 H9         -1.2779    5.4734   -4.9620 H         1 <0>         0.0672
     38 H10        -2.0035    4.6543   -3.5581 H         1 <0>         0.0661
     39 H11        -3.0477    5.3379   -4.8272 H         1 <0>         0.1084
     40 H12         0.9926    8.8153   -1.7717 H         1 <0>         0.4217
     41 H13         2.1140    5.7698    0.0549 H         1 <0>         0.1368
     42 H14         1.7902    3.3561    0.0901 H         1 <0>         0.1373
     43 H15         0.2543    1.4155    0.2616 H         1 <0>         0.1346
     44 H16        -2.0111    0.5575    0.5143 H         1 <0>         0.1316
     45 H17        -3.9227    2.0885    0.7189 H         1 <0>         0.1314
     46 H18        -3.5975    4.5022    0.6935 H         1 <0>         0.1331
     47 H19        -2.0619    6.4426    0.5220 H         1 <0>         0.1409
     48 H20         0.0289   14.9619    0.1318 H         1 <0>         0.4434
     49 H21         1.7005   15.1227    0.0816 H         1 <0>         0.4320
     50 N3          2.1424   12.9438   -1.2605 N.pl3     1 <0>        -0.7598
     51 H22         2.1583   12.0634   -1.7887 H         1 <0>         0.4587
@<TRIPOS>BOND
     1    1   50 1
     2    2    3 1
     3    2   30 1
     4    2   50 2
     5    3    8 ar
     6    3    4 ar
     7    4    5 ar
     8    4   31 1
     9    5    6 ar
    10    5   32 1
    11    6    7 ar
    12    6   33 1
    13    7    8 ar
    14    7    9 1
    15    8   34 1
    16    9   10 1
    17    9   35 1
    18    9   36 1
    19   10   11 1
    20   10   12 1
    21   10   16 1
    22   12   13 2
    23   12   14 1
    24   14   15 1
    25   15   37 1
    26   15   38 1
    27   15   39 1
    28   16   17 1
    29   16   40 1
    30   17   18 2
    31   17   19 2
    32   17   20 1
    33   20   29 ar
    34   20   21 ar
    35   21   22 ar
    36   21   41 1
    37   22   23 ar
    38   22   42 1
    39   23   28 ar
    40   23   24 ar
    41   24   25 ar
    42   24   43 1
    43   25   26 ar
    44   25   44 1
    45   26   27 ar
    46   26   45 1
    47   27   28 ar
    48   27   46 1
    49   28   29 ar
    50   29   47 1
    51   30   48 1
    52   30   49 1
    53   50   51 1
@<TRIPOS>MOLECULE
ZINC03834146
   69    73     0     0     0
SMALL
USER_CHARGES

@<TRIPOS>ATOM
      1 H1          3.4710   -9.7606   -0.3089 H         1 <0>         0.4434
      2 C1          1.4353   -9.7632   -0.2872 C.cat     1 <0>         0.5962
      3 C2          0.2545   -8.8703   -0.3230 C.ar      1 <0>        -0.1383
      4 C3         -1.0317   -9.4083   -0.2807 C.ar      1 <0>        -0.0425
      5 C4         -2.1279   -8.5713   -0.3148 C.ar      1 <0>        -0.0969
      6 C5         -1.9533   -7.2006   -0.3851 C.ar      1 <0>        -0.0340
      7 C6         -0.6805   -6.6614   -0.4330 C.ar      1 <0>        -0.0598
      8 C7          0.4240   -7.4884   -0.3995 C.ar      1 <0>        -0.0445
      9 C8         -0.4991   -5.1677   -0.5157 C.3       1 <0>        -0.0982
     10 C9         -0.4525   -4.7402   -1.9841 C.3       1 <0>         0.1472
     11 H2         -1.3981   -4.9896   -2.4654 H         1 <0>         0.1090
     12 C10        -0.2235   -3.2530   -2.0672 C.2       1 <0>         0.5275
     13 O1          0.8751   -2.8235   -2.3496 O.2       1 <0>        -0.5172
     14 N1         -1.2394   -2.4002   -1.8277 N.am      1 <0>        -0.6076
     15 C11        -2.6531   -2.7648   -1.5726 C.3       1 <0>         0.0934
     16 C12        -3.4062   -1.4511   -1.2261 C.3       1 <0>        -0.1277
     17 C13        -2.2575   -0.5458   -0.7548 C.3       1 <0>        -0.1024
     18 H3         -1.9715   -0.7766    0.2714 H         1 <0>         0.0876
     19 C14        -1.1393   -0.9459   -1.7555 C.3       1 <0>         0.1324
     20 H4         -1.3724   -0.5313   -2.7362 H         1 <0>         0.0729
     21 C15         0.1557   -0.3336   -1.2647 C.3       1 <0>        -0.1182
     22 C16        -0.0051    1.1943   -1.3315 C.3       1 <0>        -0.1177
     23 C17        -1.2019    1.6641   -0.5100 C.3       1 <0>        -0.1234
     24 C18        -2.4926    0.9445   -0.9329 C.3       1 <0>        -0.1092
     25 N2          0.6405   -5.4412   -2.6624 N.pl3     1 <0>        -1.1017
     26 S1          0.3373   -6.8429   -3.4905 S.o2      1 <0>         2.6826
     27 O2          1.5750   -7.2594   -4.0509 O.2       1 <0>        -0.9566
     28 O3         -0.4228   -7.6716   -2.6218 O.2       1 <0>        -0.9431
     29 C19        -0.7149   -6.4318   -4.8427 C.ar      1 <0>        -0.6829
     30 C20        -2.0977   -6.4781   -4.6753 C.ar      1 <0>        -0.0556
     31 C21        -2.9383   -6.1613   -5.6976 C.ar      1 <0>        -0.1100
     32 C22        -2.4074   -5.7932   -6.9457 C.ar      1 <0>        -0.0104
     33 C23        -3.2437   -5.4651   -8.0264 C.ar      1 <0>        -0.1212
     34 C24        -2.6940   -5.1136   -9.2207 C.ar      1 <0>        -0.0856
     35 C25        -1.3112   -5.0727   -9.3899 C.ar      1 <0>        -0.1151
     36 C26        -0.4705   -5.3834   -8.3657 C.ar      1 <0>        -0.0921
     37 C27        -1.0013   -5.7515   -7.1177 C.ar      1 <0>        -0.0791
     38 C28        -0.1650   -6.0795   -6.0368 C.ar      1 <0>         0.0259
     39 N3          1.2648  -11.1284   -0.2115 N.pl3     1 <0>        -0.7824
     40 H5         -1.1691  -10.4779   -0.2210 H         1 <0>         0.1296
     41 H6         -3.1243   -8.9867   -0.2820 H         1 <0>         0.1412
     42 H7         -2.8145   -6.5492   -0.4071 H         1 <0>         0.1371
     43 H8          1.4174   -7.0660   -0.4322 H         1 <0>         0.1227
     44 H9          0.4333   -4.8872   -0.0259 H         1 <0>         0.0964
     45 H10        -1.3336   -4.6723   -0.0194 H         1 <0>         0.1033
     46 H11        -2.7123   -3.4589   -0.7343 H         1 <0>         0.0752
     47 H12        -3.0867   -3.2173   -2.4644 H         1 <0>         0.0754
     48 H13        -4.1276   -1.6147   -0.4255 H         1 <0>         0.0888
     49 H14        -3.8933   -1.0358   -2.1083 H         1 <0>         0.0826
     50 H15         0.3451   -0.6416   -0.2364 H         1 <0>         0.0638
     51 H16         0.9805   -0.6489   -1.9037 H         1 <0>         0.0848
     52 H17         0.8991    1.6653   -0.9460 H         1 <0>         0.0692
     53 H18        -0.1463    1.4929   -2.3703 H         1 <0>         0.0629
     54 H19        -1.3305    2.7375   -0.6495 H         1 <0>         0.0675
     55 H20        -1.0113    1.4634    0.5441 H         1 <0>         0.0625
     56 H21        -2.7138    1.1629   -1.9777 H         1 <0>         0.0686
     57 H22        -3.3210    1.2674   -0.3023 H         1 <0>         0.0727
     58 H23         1.5418   -5.0844   -2.6264 H         1 <0>         0.4295
     59 H24        -2.5084   -6.7652   -3.7185 H         1 <0>         0.1374
     60 H25        -4.0079   -6.1972   -5.5520 H         1 <0>         0.1382
     61 H26        -4.3171   -5.4918   -7.9098 H         1 <0>         0.1358
     62 H27        -3.3390   -4.8623  -10.0498 H         1 <0>         0.1332
     63 H28        -0.9006   -4.7905  -10.3481 H         1 <0>         0.1334
     64 H29         0.5991   -5.3470   -8.5114 H         1 <0>         0.1354
     65 H30         0.9084   -6.0517   -6.1530 H         1 <0>         0.1437
     66 H31         0.3712  -11.5045   -0.1817 H         1 <0>         0.4426
     67 H32         2.0382  -11.7132   -0.1881 H         1 <0>         0.4296
     68 N4          2.6271   -9.1879   -0.3310 N.pl3     1 <0>        -0.7650
     69 H33         2.7018   -8.1654   -0.3871 H         1 <0>         0.4571
@<TRIPOS>BOND
     1    1   68 1
     2    2    3 1
     3    2   39 1
     4    2   68 2
     5    3    8 ar
     6    3    4 ar
     7    4    5 ar
     8    4   40 1
     9    5    6 ar
    10    5   41 1
    11    6    7 ar
    12    6   42 1
    13    7    8 ar
    14    7    9 1
    15    8   43 1
    16    9   10 1
    17    9   44 1
    18    9   45 1
    19   10   11 1
    20   10   12 1
    21   10   25 1
    22   12   13 2
    23   12   14 am
    24   14   19 1
    25   14   15 1
    26   15   16 1
    27   15   46 1
    28   15   47 1
    29   16   17 1
    30   16   48 1
    31   16   49 1
    32   17   18 1
    33   17   24 1
    34   17   19 1
    35   19   20 1
    36   19   21 1
    37   21   22 1
    38   21   50 1
    39   21   51 1
    40   22   23 1
    41   22   52 1
    42   22   53 1
    43   23   24 1
    44   23   54 1
    45   23   55 1
    46   24   56 1
    47   24   57 1
    48   25   26 1
    49   25   58 1
    50   26   27 2
    51   26   28 2
    52   26   29 1
    53   29   38 ar
    54   29   30 ar
    55   30   31 ar
    56   30   59 1
    57   31   32 ar
    58   31   60 1
    59   32   37 ar
    60   32   33 ar
    61   33   34 ar
    62   33   61 1
    63   34   35 ar
    64   34   62 1
    65   35   36 ar
    66   35   63 1
    67   36   37 ar
    68   36   64 1
    69   37   38 ar
    70   38   65 1
    71   39   66 1
    72   39   67 1
    73   68   69 1
@<TRIPOS>MOLECULE
ZINC03834147
   64    67     0     0     0
SMALL
USER_CHARGES

@<TRIPOS>ATOM
      1 H1          6.7597   -1.3340    0.2337 H         1 <0>         0.4426
      2 C1          5.0973   -0.2958    0.7843 C.cat     1 <0>         0.6031
      3 C2          3.6174   -0.3424    0.7642 C.ar      1 <0>        -0.1499
      4 C3          2.8763    0.7028    1.3152 C.ar      1 <0>        -0.0508
      5 C4          1.4977    0.6537    1.2935 C.ar      1 <0>        -0.0992
      6 C5          0.8501   -0.4296    0.7264 C.ar      1 <0>        -0.0400
      7 C6          1.5796   -1.4690    0.1779 C.ar      1 <0>        -0.0613
      8 C7          2.9591   -1.4313    0.1937 C.ar      1 <0>        -0.0496
      9 C8          0.8665   -2.6448   -0.4387 C.3       1 <0>        -0.0974
     10 C9          0.6219   -2.3712   -1.9240 C.3       1 <0>         0.1175
     11 H2          1.5548   -2.0611   -2.3947 H         1 <0>         0.1560
     12 C10         0.1163   -3.6254   -2.5892 C.2       1 <0>         0.5047
     13 O1         -1.0306   -3.6850   -2.9788 O.2       1 <0>        -0.5183
     14 N1          0.9388   -4.6807   -2.7511 N.am      1 <0>        -0.6081
     15 C11         2.3531   -4.5943   -2.3622 C.3       1 <0>         0.0976
     16 C12         3.2218   -5.0007   -3.5512 C.3       1 <0>        -0.1370
     17 C13         2.7893   -6.3823   -4.0475 C.3       1 <0>        -0.0915
     18 C14         1.3312   -6.3271   -4.5090 C.3       1 <0>        -0.1313
     19 C15         0.4398   -5.9376   -3.3257 C.3       1 <0>         0.1084
     20 C16         3.6790   -6.8048   -5.2184 C.3       1 <0>        -0.1487
     21 N2         -0.3746   -1.3069   -2.0670 N.pl3     1 <0>        -1.0937
     22 S1          0.0680    0.1643   -2.6849 S.o2      1 <0>         2.7005
     23 O2         -1.1053    0.9656   -2.7057 O.2       1 <0>        -0.9550
     24 O3          1.2465    0.5568   -1.9947 O.2       1 <0>        -0.9297
     25 C17         0.5310   -0.0944   -4.3652 C.ar      1 <0>        -0.6738
     26 C18        -0.2779    0.3376   -5.3710 C.ar      1 <0>         0.0354
     27 C19         0.0690    0.1434   -6.7062 C.ar      1 <0>        -0.1404
     28 C20         1.2291   -0.4853   -7.0424 C.ar      1 <0>        -0.0308
     29 C21         2.0878   -0.9442   -6.0309 C.ar      1 <0>        -0.1182
     30 C22         1.7398   -0.7426   -4.6721 C.ar      1 <0>         0.2038
     31 N3          2.5517   -1.1824   -3.7053 N.ar      1 <0>        -0.4915
     32 C23         3.6778   -1.7919   -3.9859 C.ar      1 <0>         0.1477
     33 C24         4.0819   -2.0170   -5.3002 C.ar      1 <0>        -0.1851
     34 C25         3.2964   -1.5984   -6.3361 C.ar      1 <0>        -0.0294
     35 N4          5.7450    0.7815    1.3488 N.pl3     1 <0>        -0.7812
     36 H3          3.3807    1.5492    1.7578 H         1 <0>         0.1344
     37 H4          0.9227    1.4645    1.7158 H         1 <0>         0.1462
     38 H5         -0.2292   -0.4637    0.7117 H         1 <0>         0.1391
     39 H6          3.5275   -2.2435   -0.2346 H         1 <0>         0.1277
     40 H7          1.4798   -3.5393   -0.3302 H         1 <0>         0.0971
     41 H8         -0.0883   -2.7956    0.0651 H         1 <0>         0.0993
     42 H9          2.5900   -3.5710   -2.0712 H         1 <0>         0.0783
     43 H10         2.5440   -5.2677   -1.5266 H         1 <0>         0.0775
     44 H11         4.2672   -5.0351   -3.2445 H         1 <0>         0.0791
     45 H12         3.1011   -4.2721   -4.3528 H         1 <0>         0.0698
     46 H13         2.8869   -7.1056   -3.2380 H         1 <0>         0.0755
     47 H14         1.0311   -7.3055   -4.8840 H         1 <0>         0.0804
     48 H15         1.2283   -5.5859   -5.3015 H         1 <0>         0.0652
     49 H16         0.4715   -6.7226   -2.5702 H         1 <0>         0.0735
     50 H17        -0.5853   -5.8003   -3.6700 H         1 <0>         0.0956
     51 H18         3.5812   -6.0819   -6.0282 H         1 <0>         0.0537
     52 H19         4.7175   -6.8442   -4.8899 H         1 <0>         0.0570
     53 H20         3.3719   -7.7893   -5.5712 H         1 <0>         0.0594
     54 H21        -1.2937   -1.4640   -1.7996 H         1 <0>         0.4259
     55 H22        -1.2038    0.8388   -5.1300 H         1 <0>         0.1543
     56 H23        -0.5909    0.4964   -7.4850 H         1 <0>         0.1467
     57 H24         1.4871   -0.6303   -8.0811 H         1 <0>         0.1448
     58 H25         4.3093   -2.1282   -3.1770 H         1 <0>         0.1570
     59 H26         5.0156   -2.5218   -5.4997 H         1 <0>         0.1450
     60 H27         3.5940   -1.7648   -7.3608 H         1 <0>         0.1471
     61 H28         5.2316    1.5093    1.7328 H         1 <0>         0.4433
     62 H29         6.7144    0.8120    1.3619 H         1 <0>         0.4299
     63 N5          5.7397   -1.3198    0.2441 N.pl3     1 <0>        -0.7648
     64 H30         5.2112   -2.0996   -0.1644 H         1 <0>         0.4568
@<TRIPOS>BOND
     1    1   63 1
     2    2    3 1
     3    2   35 1
     4    2   63 2
     5    3    8 ar
     6    3    4 ar
     7    4    5 ar
     8    4   36 1
     9    5    6 ar
    10    5   37 1
    11    6    7 ar
    12    6   38 1
    13    7    8 ar
    14    7    9 1
    15    8   39 1
    16    9   10 1
    17    9   40 1
    18    9   41 1
    19   10   11 1
    20   10   12 1
    21   10   21 1
    22   12   13 2
    23   12   14 am
    24   14   19 1
    25   14   15 1
    26   15   16 1
    27   15   42 1
    28   15   43 1
    29   16   17 1
    30   16   44 1
    31   16   45 1
    32   17   18 1
    33   17   20 1
    34   17   46 1
    35   18   19 1
    36   18   47 1
    37   18   48 1
    38   19   49 1
    39   19   50 1
    40   20   51 1
    41   20   52 1
    42   20   53 1
    43   21   22 1
    44   21   54 1
    45   22   23 2
    46   22   24 2
    47   22   25 1
    48   25   30 ar
    49   25   26 ar
    50   26   27 ar
    51   26   55 1
    52   27   28 ar
    53   27   56 1
    54   28   29 ar
    55   28   57 1
    56   29   34 ar
    57   29   30 ar
    58   30   31 ar
    59   31   32 ar
    60   32   33 ar
    61   32   58 1
    62   33   34 ar
    63   33   59 1
    64   34   60 1
    65   35   61 1
    66   35   62 1
    67   63   64 1
@<TRIPOS>MOLECULE
ZINC03834148
   56    58     0     0     0
SMALL
USER_CHARGES

@<TRIPOS>ATOM
      1 H1          4.0061    1.8564    2.2521 H         1 <0>         0.4447
      2 C1          2.2664    2.3677    1.3265 C.cat     1 <0>         0.6015
      3 C2          1.1011    1.8009    0.6099 C.ar      1 <0>        -0.1523
      4 C3          0.0959    2.6416    0.1325 C.ar      1 <0>        -0.0557
      5 C4         -0.9874    2.1075   -0.5345 C.ar      1 <0>        -0.1068
      6 C5         -1.0776    0.7407   -0.7303 C.ar      1 <0>        -0.0463
      7 C6         -0.0836   -0.0981   -0.2596 C.ar      1 <0>        -0.0723
      8 C7          1.0048    0.4244    0.4091 C.ar      1 <0>        -0.0586
      9 C8         -0.1892   -1.5855   -0.4779 C.3       1 <0>        -0.0855
     10 C9          0.4804   -1.9551   -1.8031 C.3       1 <0>         0.1438
     11 H2          1.5082   -1.5923   -1.8046 H         1 <0>         0.1136
     12 C10         0.4763   -3.4532   -1.9672 C.2       1 <0>         0.5071
     13 O1         -0.4297   -3.9954   -2.5639 O.2       1 <0>        -0.5064
     14 N1          1.4795   -4.1904   -1.4508 N.am      1 <0>        -0.6156
     15 C11         2.5813   -3.6779   -0.6233 C.3       1 <0>         0.0914
     16 C12         3.4959   -4.8742   -0.2860 C.3       1 <0>        -0.1329
     17 C13         3.1724   -5.8859   -1.4169 C.3       1 <0>        -0.1353
     18 C14         1.6570   -5.6432   -1.6274 C.3       1 <0>         0.1048
     19 N2         -0.2560   -1.3406   -2.9104 N.pl3     1 <0>        -1.0973
     20 S1          0.5582   -0.8001   -4.2474 S.o2      1 <0>         2.6906
     21 O2         -0.4217   -0.2889   -5.1405 O.2       1 <0>        -0.9455
     22 O3          1.6410   -0.0121   -3.7724 O.2       1 <0>        -0.9570
     23 C15         1.2671   -2.2102   -5.0309 C.ar      1 <0>        -0.6878
     24 C16         2.5389   -2.6269   -4.6848 C.ar      1 <0>        -0.0204
     25 C17         3.0932   -3.7357   -5.2964 C.ar      1 <0>        -0.1403
     26 C18         2.3796   -4.4220   -6.2610 C.ar      1 <0>        -0.0188
     27 C19         1.1098   -4.0025   -6.6106 C.ar      1 <0>        -0.1371
     28 C20         0.5536   -2.8963   -5.9959 C.ar      1 <0>        -0.0018
     29 C21         2.9859   -5.6281   -6.9311 C.3       1 <0>        -0.1287
     30 N3          2.3588    3.7282    1.5235 N.pl3     1 <0>        -0.7791
     31 H3          0.1654    3.7086    0.2844 H         1 <0>         0.1396
     32 H4         -1.7642    2.7580   -0.9085 H         1 <0>         0.1521
     33 H5         -1.9274    0.3273   -1.2529 H         1 <0>         0.1469
     34 H6          1.7801   -0.2316    0.7764 H         1 <0>         0.1358
     35 H7          0.3081   -2.1087    0.3388 H         1 <0>         0.1025
     36 H8         -1.2397   -1.8746   -0.5085 H         1 <0>         0.1063
     37 H9          3.1419   -2.9251   -1.1775 H         1 <0>         0.0697
     38 H10         2.1850   -3.2460    0.2956 H         1 <0>         0.0693
     39 H11         3.2457   -5.2927    0.6889 H         1 <0>         0.0818
     40 H12         4.5441   -4.5776   -0.3221 H         1 <0>         0.0862
     41 H13         3.3628   -6.9090   -1.0923 H         1 <0>         0.0900
     42 H14         3.7346   -5.6538   -2.3215 H         1 <0>         0.0782
     43 H15         1.0783   -6.1895   -0.8826 H         1 <0>         0.0732
     44 H16         1.3610   -5.9421   -2.6330 H         1 <0>         0.0805
     45 H17        -1.2205   -1.2502   -2.8605 H         1 <0>         0.4265
     46 H18         3.0979   -2.0882   -3.9340 H         1 <0>         0.1315
     47 H19         4.0853   -4.0637   -5.0229 H         1 <0>         0.1318
     48 H20         0.5523   -4.5389   -7.3642 H         1 <0>         0.1357
     49 H21        -0.4384   -2.5684   -6.2693 H         1 <0>         0.1404
     50 H22         3.5324   -5.3133   -7.8201 H         1 <0>         0.0831
     51 H23         3.6693   -6.1223   -6.2405 H         1 <0>         0.0739
     52 H24         2.1946   -6.3209   -7.2173 H         1 <0>         0.0757
     53 H25         1.6606    4.3148    1.1926 H         1 <0>         0.4435
     54 H26         3.1222    4.0997    1.9929 H         1 <0>         0.4318
     55 N4          3.1847    1.5145    1.7530 N.pl3     1 <0>        -0.7603
     56 H27         3.0701    0.5087    1.5814 H         1 <0>         0.4586
@<TRIPOS>BOND
     1    1   55 1
     2    2    3 1
     3    2   30 1
     4    2   55 2
     5    3    8 ar
     6    3    4 ar
     7    4    5 ar
     8    4   31 1
     9    5    6 ar
    10    5   32 1
    11    6    7 ar
    12    6   33 1
    13    7    8 ar
    14    7    9 1
    15    8   34 1
    16    9   10 1
    17    9   35 1
    18    9   36 1
    19   10   11 1
    20   10   12 1
    21   10   19 1
    22   12   13 2
    23   12   14 am
    24   14   18 1
    25   14   15 1
    26   15   16 1
    27   15   37 1
    28   15   38 1
    29   16   17 1
    30   16   39 1
    31   16   40 1
    32   17   18 1
    33   17   41 1
    34   17   42 1
    35   18   43 1
    36   18   44 1
    37   19   20 1
    38   19   45 1
    39   20   21 2
    40   20   22 2
    41   20   23 1
    42   23   28 ar
    43   23   24 ar
    44   24   25 ar
    45   24   46 1
    46   25   26 ar
    47   25   47 1
    48   26   27 ar
    49   26   29 1
    50   27   28 ar
    51   27   48 1
    52   28   49 1
    53   29   50 1
    54   29   51 1
    55   29   52 1
    56   30   53 1
    57   30   54 1
    58   55   56 1
@<TRIPOS>MOLECULE
ZINC03834149
   64    67     0     0     0
SMALL
USER_CHARGES

@<TRIPOS>ATOM
      1 H1          2.5951   -7.9911    4.9813 H         1 <0>         0.4414
      2 C1          3.8927   -6.5334    5.5610 C.cat     1 <0>         0.5978
      3 C2          4.2771   -5.1265    5.3042 C.ar      1 <0>        -0.1416
      4 C3          5.3181   -4.5423    6.0257 C.ar      1 <0>        -0.0447
      5 C4          5.6718   -3.2313    5.7817 C.ar      1 <0>        -0.0980
      6 C5          4.9999   -2.4980    4.8197 C.ar      1 <0>        -0.0327
      7 C6          3.9631   -3.0701    4.1051 C.ar      1 <0>        -0.0571
      8 C7          3.6000   -4.3807    4.3401 C.ar      1 <0>        -0.0409
      9 C8          3.2324   -2.2626    3.0634 C.3       1 <0>        -0.1050
     10 C9          2.0444   -1.5492    3.7119 C.3       1 <0>         0.1421
     11 H2          2.4058   -0.8698    4.4838 H         1 <0>         0.1128
     12 C10         1.2956   -0.7664    2.6641 C.2       1 <0>         0.5098
     13 O1          0.1789   -1.1068    2.3356 O.2       1 <0>        -0.5327
     14 N1          1.8670    0.3120    2.0923 N.am      1 <0>        -0.5951
     15 C11         1.1785    1.0440    1.0204 C.3       1 <0>         0.1095
     16 C12         1.1046    2.5253    1.4037 C.3       1 <0>        -0.1113
     17 C13         2.5129    3.0393    1.7116 C.3       1 <0>        -0.1293
     18 C14         3.0937    2.2625    2.8953 C.3       1 <0>        -0.1124
     19 C15         3.1901    0.7781    2.5290 C.3       1 <0>         0.0983
     20 C16         2.4482    4.5050    2.0561 C.2       1 <0>         0.4629
     21 O2          1.3853    5.0794    2.0554 O.co2     1 <0>        -0.6355
     22 N2          1.1489   -2.5403    4.3137 N.pl3     1 <0>        -1.0987
     23 S1          1.2917   -2.9178    5.9198 S.o2      1 <0>         2.6844
     24 O3          0.2804   -3.8750    6.2034 O.2       1 <0>        -0.9617
     25 O4          2.6696   -3.1724    6.1563 O.2       1 <0>        -0.9459
     26 C17         0.8834   -1.4680    6.8341 C.ar      1 <0>        -0.6812
     27 C18         1.8888   -0.5639    7.1723 C.ar      1 <0>        -0.0559
     28 C19         1.6064    0.5682    7.8729 C.ar      1 <0>        -0.1061
     29 C20         0.2843    0.8265    8.2732 C.ar      1 <0>        -0.0093
     30 C21        -0.0446    1.9814    9.0036 C.ar      1 <0>        -0.1169
     31 C22        -1.3359    2.1989    9.3739 C.ar      1 <0>        -0.0886
     32 C23        -2.3405    1.2921    9.0404 C.ar      1 <0>        -0.1158
     33 C24        -2.0592    0.1630    8.3345 C.ar      1 <0>        -0.0936
     34 C25        -0.7371   -0.0954    7.9340 C.ar      1 <0>        -0.0785
     35 C26        -0.4080   -1.2505    7.2043 C.ar      1 <0>         0.0237
     36 N3          4.5635   -7.2678    6.5143 N.pl3     1 <0>        -0.7851
     37 H3          5.8463   -5.1151    6.7735 H         1 <0>         0.1276
     38 H4          6.4774   -2.7777    6.3399 H         1 <0>         0.1410
     39 H5          5.2834   -1.4734    4.6291 H         1 <0>         0.1408
     40 H6          2.7929   -4.8276    3.7786 H         1 <0>         0.1219
     41 H7          2.8727   -2.9254    2.2763 H         1 <0>         0.0966
     42 H8          3.9100   -1.5240    2.6349 H         1 <0>         0.1095
     43 H9          0.1706    0.6479    0.8965 H         1 <0>         0.0904
     44 H10         1.7311    0.9351    0.0872 H         1 <0>         0.0704
     45 H11         0.6825    3.0947    0.5756 H         1 <0>         0.0784
     46 H12         0.4739    2.6420    2.2850 H         1 <0>         0.0651
     47 H13         3.1495    2.8995    0.8380 H         1 <0>         0.0718
     48 H14         2.4443    2.3817    3.7626 H         1 <0>         0.0603
     49 H15         4.0873    2.6446    3.1295 H         1 <0>         0.0872
     50 H16         3.5096    0.2067    3.4005 H         1 <0>         0.0759
     51 H17         3.9090    0.6473    1.7202 H         1 <0>         0.0790
     52 H18         0.4725   -2.9753    3.7715 H         1 <0>         0.4280
     53 H19         2.9065   -0.7625    6.8699 H         1 <0>         0.1378
     54 H20         2.3952    1.2616    8.1247 H         1 <0>         0.1398
     55 H21         0.7234    2.6928    9.2690 H         1 <0>         0.1366
     56 H22        -1.5860    3.0872    9.9348 H         1 <0>         0.1321
     57 H23        -3.3572    1.4881    9.3472 H         1 <0>         0.1313
     58 H24        -2.8479   -0.5307    8.0835 H         1 <0>         0.1337
     59 H25        -1.1759   -1.9622    6.9390 H         1 <0>         0.1425
     60 H26         5.2876   -6.8634    7.0174 H         1 <0>         0.4422
     61 H27         4.3118   -8.1894    6.6825 H         1 <0>         0.4277
     62 N4          2.8968   -7.0267    4.8413 N.pl3     1 <0>        -0.7663
     63 H28         2.4282   -6.4385    4.1422 H         1 <0>         0.4578
     64 O5          3.5715    5.1722    2.3637 O.co2     1 <0>        -0.7683
@<TRIPOS>BOND
     1    1   62 1
     2    2    3 1
     3    2   36 1
     4    2   62 2
     5    3    8 ar
     6    3    4 ar
     7    4    5 ar
     8    4   37 1
     9    5    6 ar
    10    5   38 1
    11    6    7 ar
    12    6   39 1
    13    7    8 ar
    14    7    9 1
    15    8   40 1
    16    9   10 1
    17    9   41 1
    18    9   42 1
    19   10   11 1
    20   10   12 1
    21   10   22 1
    22   12   13 2
    23   12   14 am
    24   14   19 1
    25   14   15 1
    26   15   16 1
    27   15   43 1
    28   15   44 1
    29   16   17 1
    30   16   45 1
    31   16   46 1
    32   17   18 1
    33   17   20 1
    34   17   47 1
    35   18   19 1
    36   18   48 1
    37   18   49 1
    38   19   50 1
    39   19   51 1
    40   20   21 2
    41   20   64 1
    42   22   23 1
    43   22   52 1
    44   23   24 2
    45   23   25 2
    46   23   26 1
    47   26   35 ar
    48   26   27 ar
    49   27   28 ar
    50   27   53 1
    51   28   29 ar
    52   28   54 1
    53   29   34 ar
    54   29   30 ar
    55   30   31 ar
    56   30   55 1
    57   31   32 ar
    58   31   56 1
    59   32   33 ar
    60   32   57 1
    61   33   34 ar
    62   33   58 1
    63   34   35 ar
    64   35   59 1
    65   36   60 1
    66   36   61 1
    67   62   63 1
@<TRIPOS>MOLECULE
ZINC03834150
   65    68     0     0     0
SMALL
USER_CHARGES

@<TRIPOS>ATOM
      1 H1          5.7829   -0.2081   -0.0553 H         1 <0>         0.4447
      2 C1          3.8647   -0.8896   -0.0404 C.cat     1 <0>         0.6017
      3 C2          2.4537   -0.4404   -0.0240 C.ar      1 <0>        -0.1521
      4 C3          1.4206   -1.3775   -0.0192 C.ar      1 <0>        -0.0558
      5 C4          0.1080   -0.9528   -0.0045 C.ar      1 <0>        -0.1066
      6 C5         -0.1845    0.3995    0.0056 C.ar      1 <0>        -0.0464
      7 C6          0.8357    1.3336    0.0010 C.ar      1 <0>        -0.0713
      8 C7          2.1526    0.9211   -0.0138 C.ar      1 <0>        -0.0593
      9 C8          0.5085    2.8046    0.0117 C.3       1 <0>        -0.0950
     10 C9          0.4111    3.2949    1.4577 C.3       1 <0>         0.1484
     11 H2          1.3322    3.0507    1.9870 H         1 <0>         0.1205
     12 C10         0.2060    4.7878    1.4691 C.2       1 <0>         0.5143
     13 O1         -0.7877    5.2595    1.9800 O.2       1 <0>        -0.4871
     14 N1          1.1267    5.5989    0.9115 N.am      1 <0>        -0.6042
     15 C11         2.3777    5.1621    0.2652 C.3       1 <0>         0.0887
     16 C12         3.3229    6.3831    0.3597 C.3       1 <0>        -0.1333
     17 C13         2.3353    7.5616    0.1514 C.3       1 <0>        -0.1198
     18 C14         1.0531    7.0661    0.8529 C.3       1 <0>         0.1485
     19 H3          0.9981    7.4751    1.8618 H         1 <0>         0.1174
     20 C15        -0.1589    7.4872    0.0625 C.2       1 <0>         0.4520
     21 O2         -0.8933    6.6514   -0.4084 O.2       1 <0>        -0.4898
     22 O3         -0.4225    8.7908   -0.1184 O.3       1 <0>        -0.3568
     23 C16        -1.6068    9.1231   -0.8900 C.3       1 <0>         0.0373
     24 N2         -0.7205    2.6414    2.1198 N.pl3     1 <0>        -1.0950
     25 S1         -0.6244    2.2448    3.7247 S.o2      1 <0>         2.6913
     26 O4         -1.8709    1.6587    4.0736 O.2       1 <0>        -0.9476
     27 O5          0.6122    1.5675    3.9023 O.2       1 <0>        -0.9564
     28 C17        -0.5066    3.7531    4.6279 C.ar      1 <0>        -0.6718
     29 C18         0.7488    4.2933    4.9013 C.ar      1 <0>        -0.0521
     30 C19         0.8746    5.4593    5.5917 C.ar      1 <0>        -0.1136
     31 C20        -0.2761    6.1251    6.0474 C.ar      1 <0>        -0.0083
     32 C21        -0.1857    7.3277    6.7692 C.ar      1 <0>        -0.1226
     33 C22        -1.3217    7.9449    7.1944 C.ar      1 <0>        -0.0882
     34 C23        -2.5769    7.4019    6.9257 C.ar      1 <0>        -0.1195
     35 C24        -2.7030    6.2390    6.2300 C.ar      1 <0>        -0.0884
     36 C25        -1.5524    5.5732    5.7741 C.ar      1 <0>        -0.0746
     37 C26        -1.6426    4.3702    5.0530 C.ar      1 <0>         0.0428
     38 N3          4.1591   -2.2356   -0.0509 N.pl3     1 <0>        -0.7792
     39 H4          1.6476   -2.4333   -0.0268 H         1 <0>         0.1394
     40 H5         -0.6928   -1.6774   -0.0011 H         1 <0>         0.1517
     41 H6         -1.2136    0.7272    0.0126 H         1 <0>         0.1462
     42 H7          2.9484    1.6512   -0.0171 H         1 <0>         0.1357
     43 H8          1.2936    3.3552   -0.5066 H         1 <0>         0.1068
     44 H9         -0.4438    2.9686   -0.4925 H         1 <0>         0.1059
     45 H10         2.8025    4.3109    0.7973 H         1 <0>         0.0823
     46 H11         2.1959    4.9059   -0.7786 H         1 <0>         0.0788
     47 H12         4.0747    6.3594   -0.4291 H         1 <0>         0.0960
     48 H13         3.7920    6.4354    1.3422 H         1 <0>         0.0873
     49 H14         2.1537    7.7296   -0.9101 H         1 <0>         0.0857
     50 H15         2.7083    8.4692    0.6259 H         1 <0>         0.1040
     51 H16        -1.7025   10.2066   -0.9603 H         1 <0>         0.1060
     52 H17        -1.5185    8.7006   -1.8909 H         1 <0>         0.0636
     53 H18        -2.4881    8.7116   -0.3983 H         1 <0>         0.0644
     54 H19        -1.5262    2.4410    1.6181 H         1 <0>         0.4255
     55 H20         1.6348    3.7810    4.5564 H         1 <0>         0.1299
     56 H21         1.8537    5.8680    5.7930 H         1 <0>         0.1337
     57 H22         0.7802    7.7601    6.9848 H         1 <0>         0.1326
     58 H23        -1.2494    8.8690    7.7485 H         1 <0>         0.1305
     59 H24        -3.4627    7.9115    7.2751 H         1 <0>         0.1309
     60 H25        -3.6822    5.8299    6.0294 H         1 <0>         0.1338
     61 H26        -2.6085    3.9377    4.8376 H         1 <0>         0.1430
     62 H27         3.4421   -2.8889   -0.0476 H         1 <0>         0.4434
     63 H28         5.0833   -2.5299   -0.0616 H         1 <0>         0.4317
     64 N4          4.7963    0.0511   -0.0441 N.pl3     1 <0>        -0.7603
     65 H29         4.5258    1.0416   -0.0358 H         1 <0>         0.4585
@<TRIPOS>BOND
     1    1   64 1
     2    2    3 1
     3    2   38 1
     4    2   64 2
     5    3    8 ar
     6    3    4 ar
     7    4    5 ar
     8    4   39 1
     9    5    6 ar
    10    5   40 1
    11    6    7 ar
    12    6   41 1
    13    7    8 ar
    14    7    9 1
    15    8   42 1
    16    9   10 1
    17    9   43 1
    18    9   44 1
    19   10   11 1
    20   10   12 1
    21   10   24 1
    22   12   13 2
    23   12   14 am
    24   14   18 1
    25   14   15 1
    26   15   16 1
    27   15   45 1
    28   15   46 1
    29   16   17 1
    30   16   47 1
    31   16   48 1
    32   17   18 1
    33   17   49 1
    34   17   50 1
    35   18   19 1
    36   18   20 1
    37   20   21 2
    38   20   22 1
    39   22   23 1
    40   23   51 1
    41   23   52 1
    42   23   53 1
    43   24   25 1
    44   24   54 1
    45   25   26 2
    46   25   27 2
    47   25   28 1
    48   28   37 ar
    49   28   29 ar
    50   29   30 ar
    51   29   55 1
    52   30   31 ar
    53   30   56 1
    54   31   36 ar
    55   31   32 ar
    56   32   33 ar
    57   32   57 1
    58   33   34 ar
    59   33   58 1
    60   34   35 ar
    61   34   59 1
    62   35   36 ar
    63   35   60 1
    64   36   37 ar
    65   37   61 1
    66   38   62 1
    67   38   63 1
    68   64   65 1
@<TRIPOS>MOLECULE
ZINC03834151
   82    87     0     0     0
SMALL
USER_CHARGES

@<TRIPOS>ATOM
      1 H1         -3.4352    1.6057    0.0642 H         1 <0>         0.4435
      2 C1         -1.5173    2.2885    0.0765 C.cat     1 <0>         0.5980
      3 C2         -0.1060    1.8403    0.0702 C.ar      1 <0>        -0.1360
      4 C3          0.9265    2.7779    0.0802 C.ar      1 <0>        -0.0432
      5 C4          2.2394    2.3542    0.0684 C.ar      1 <0>        -0.1071
      6 C5          2.5329    1.0022    0.0463 C.ar      1 <0>        -0.0419
      7 C6          1.5133    0.0675    0.0367 C.ar      1 <0>        -0.0749
      8 C7          0.1960    0.4791    0.0483 C.ar      1 <0>        -0.0100
      9 C8          1.8415   -1.4031    0.0131 C.3       1 <0>        -0.1086
     10 C9          1.9467   -1.8789   -1.4372 C.3       1 <0>         0.1502
     11 H2          2.6715   -1.2632   -1.9699 H         1 <0>         0.1167
     12 C10         2.3946   -3.3175   -1.4626 C.2       1 <0>         0.5154
     13 O1          1.6900   -4.1632   -1.9719 O.2       1 <0>        -0.4906
     14 N1          3.5783   -3.6645   -0.9194 N.am      1 <0>        -0.5985
     15 C11         4.5090   -2.6526   -0.4079 C.3       1 <0>         0.1475
     16 C12         5.9109   -2.9775   -0.8588 C.ar      1 <0>        -0.1110
     17 C13         6.8918   -2.0132   -0.6704 C.ar      1 <0>        -0.1094
     18 C14         8.1945   -2.2551   -1.0544 C.ar      1 <0>        -0.1151
     19 C15         8.5256   -3.4676   -1.6305 C.ar      1 <0>        -0.1067
     20 C16         7.5515   -4.4250   -1.8210 C.ar      1 <0>        -0.1129
     21 C17         6.2374   -4.1825   -1.4391 C.ar      1 <0>        -0.0634
     22 C18         5.2256   -5.2692   -1.6911 C.3       1 <0>        -0.0882
     23 C19         3.9866   -5.0749   -0.8099 C.3       1 <0>         0.1577
     24 H3          4.2283   -5.3095    0.2268 H         1 <0>         0.1186
     25 C20         2.8708   -5.9674   -1.2888 C.2       1 <0>         0.4795
     26 O2          2.8609   -6.3622   -2.4308 O.2       1 <0>        -0.4912
     27 O3          1.8880   -6.3239   -0.4469 O.3       1 <0>        -0.3485
     28 C21         0.8462   -7.1853   -0.9767 C.3       1 <0>         0.1178
     29 C22        -0.1623   -7.4773    0.1043 C.ar      1 <0>        -0.0982
     30 C23         0.0024   -8.5780    0.9242 C.ar      1 <0>        -0.0946
     31 C24        -0.9204   -8.8433    1.9187 C.ar      1 <0>        -0.1203
     32 C25        -2.0127   -8.0130    2.0874 C.ar      1 <0>        -0.1077
     33 C26        -2.1801   -6.9153    1.2642 C.ar      1 <0>        -0.1249
     34 C27        -1.2550   -6.6475    0.2725 C.ar      1 <0>        -0.0955
     35 N2          0.6380   -1.7635   -2.0852 N.pl3     1 <0>        -1.0991
     36 S1          0.2685   -0.4135   -2.9704 S.o2      1 <0>         2.6781
     37 O4         -1.0412   -0.6112   -3.4850 O.2       1 <0>        -0.9536
     38 O5          0.6096    0.7063   -2.1649 O.2       1 <0>        -0.9424
     39 C28         1.3555   -0.3862   -4.3570 C.ar      1 <0>        -0.6829
     40 C29         2.5805    0.2710   -4.2560 C.ar      1 <0>        -0.0569
     41 C30         3.4453    0.3063   -5.3062 C.ar      1 <0>        -0.1084
     42 C31         3.0961   -0.3183   -6.5157 C.ar      1 <0>        -0.0096
     43 C32         3.9602   -0.2973   -7.6240 C.ar      1 <0>        -0.1213
     44 C33         3.5886   -0.9134   -8.7792 C.ar      1 <0>        -0.0849
     45 C34         2.3614   -1.5658   -8.8819 C.ar      1 <0>        -0.1148
     46 C35         1.4991   -1.6064   -7.8298 C.ar      1 <0>        -0.0913
     47 C36         1.8482   -0.9819   -6.6202 C.ar      1 <0>        -0.0786
     48 C37         0.9838   -1.0022   -5.5121 C.ar      1 <0>         0.0285
     49 N3         -1.8127    3.6341    0.0981 N.pl3     1 <0>        -0.7825
     50 H4          0.6987    3.8334    0.0967 H         1 <0>         0.1302
     51 H5          3.0398    3.0792    0.0763 H         1 <0>         0.1422
     52 H6          3.5622    0.6753    0.0369 H         1 <0>         0.1378
     53 H7         -0.5992   -0.2516    0.0408 H         1 <0>         0.1195
     54 H8          2.7913   -1.5716    0.5207 H         1 <0>         0.1083
     55 H9          1.0541   -1.9592    0.5218 H         1 <0>         0.1011
     56 H10         4.2236   -1.6719   -0.7887 H         1 <0>         0.0981
     57 H11         4.4719   -2.6434    0.6814 H         1 <0>         0.0972
     58 H12         6.6329   -1.0665   -0.2198 H         1 <0>         0.1260
     59 H13         8.9527   -1.5003   -0.9059 H         1 <0>         0.1282
     60 H14         9.5443   -3.6645   -1.9301 H         1 <0>         0.1280
     61 H15         7.8122   -5.3717   -2.2707 H         1 <0>         0.1269
     62 H16         4.9290   -5.2469   -2.7398 H         1 <0>         0.1017
     63 H17         5.6751   -6.2366   -1.4669 H         1 <0>         0.0980
     64 H18         0.3514   -6.6867   -1.8102 H         1 <0>         0.0823
     65 H19         1.2884   -8.1195   -1.3230 H         1 <0>         0.0770
     66 H20         0.8538   -9.2288    0.7899 H         1 <0>         0.1249
     67 H21        -0.7894   -9.7009    2.5620 H         1 <0>         0.1275
     68 H22        -2.7350   -8.2218    2.8626 H         1 <0>         0.1255
     69 H23        -3.0334   -6.2666    1.3960 H         1 <0>         0.1238
     70 H24        -1.3859   -5.7898   -0.3708 H         1 <0>         0.1213
     71 H25        -0.0122   -2.4777   -1.9958 H         1 <0>         0.4300
     72 H26         2.8492    0.7559   -3.3291 H         1 <0>         0.1367
     73 H27         4.3928    0.8161   -5.2122 H         1 <0>         0.1378
     74 H28         4.9143    0.2045   -7.5589 H         1 <0>         0.1356
     75 H29         4.2546   -0.8960   -9.6292 H         1 <0>         0.1333
     76 H30         2.0905   -2.0462   -9.8104 H         1 <0>         0.1335
     77 H31         0.5516   -2.1161   -7.9238 H         1 <0>         0.1355
     78 H32         0.0297   -1.5038   -5.5772 H         1 <0>         0.1435
     79 H33        -1.0961    4.2878    0.1091 H         1 <0>         0.4426
     80 H34        -2.7372    3.9277    0.1023 H         1 <0>         0.4296
     81 N4         -2.4484    1.3472    0.0606 N.pl3     1 <0>        -0.7662
     82 H35        -2.1772    0.3570    0.0447 H         1 <0>         0.4560
@<TRIPOS>BOND
     1    1   81 1
     2    2    3 1
     3    2   49 1
     4    2   81 2
     5    3    8 ar
     6    3    4 ar
     7    4    5 ar
     8    4   50 1
     9    5    6 ar
    10    5   51 1
    11    6    7 ar
    12    6   52 1
    13    7    8 ar
    14    7    9 1
    15    8   53 1
    16    9   10 1
    17    9   54 1
    18    9   55 1
    19   10   11 1
    20   10   12 1
    21   10   35 1
    22   12   13 2
    23   12   14 am
    24   14   23 1
    25   14   15 1
    26   15   16 1
    27   15   56 1
    28   15   57 1
    29   16   21 ar
    30   16   17 ar
    31   17   18 ar
    32   17   58 1
    33   18   19 ar
    34   18   59 1
    35   19   20 ar
    36   19   60 1
    37   20   21 ar
    38   20   61 1
    39   21   22 1
    40   22   23 1
    41   22   62 1
    42   22   63 1
    43   23   24 1
    44   23   25 1
    45   25   26 2
    46   25   27 1
    47   27   28 1
    48   28   29 1
    49   28   64 1
    50   28   65 1
    51   29   34 ar
    52   29   30 ar
    53   30   31 ar
    54   30   66 1
    55   31   32 ar
    56   31   67 1
    57   32   33 ar
    58   32   68 1
    59   33   34 ar
    60   33   69 1
    61   34   70 1
    62   35   36 1
    63   35   71 1
    64   36   37 2
    65   36   38 2
    66   36   39 1
    67   39   48 ar
    68   39   40 ar
    69   40   41 ar
    70   40   72 1
    71   41   42 ar
    72   41   73 1
    73   42   47 ar
    74   42   43 ar
    75   43   44 ar
    76   43   74 1
    77   44   45 ar
    78   44   75 1
    79   45   46 ar
    80   45   76 1
    81   46   47 ar
    82   46   77 1
    83   47   48 ar
    84   48   78 1
    85   49   79 1
    86   49   80 1
    87   81   82 1
@<TRIPOS>MOLECULE
ZINC03834152
   60    62     0     0     0
SMALL
USER_CHARGES

@<TRIPOS>ATOM
      1 H1          0.8953   12.3650    2.2190 H         1 <0>         0.4435
      2 C1         -0.8038   11.2549    2.3773 C.cat     1 <0>         0.5981
      3 C2         -1.6851   10.3337    1.6237 C.ar      1 <0>        -0.1369
      4 C3         -2.8214    9.7989    2.2304 C.ar      1 <0>        -0.0434
      5 C4         -3.6389    8.9416    1.5231 C.ar      1 <0>        -0.1088
      6 C5         -3.3364    8.6166    0.2126 C.ar      1 <0>        -0.0398
      7 C6         -2.2080    9.1394   -0.3926 C.ar      1 <0>        -0.0768
      8 C7         -1.3825    9.9980    0.3047 C.ar      1 <0>        -0.0117
      9 C8         -1.8823    8.7755   -1.8184 C.3       1 <0>        -0.0987
     10 C9         -0.9955    7.5288   -1.8368 C.3       1 <0>         0.1723
     11 H2         -1.4849    6.7267   -1.2844 H         1 <0>         0.1244
     12 C10        -0.7710    7.0931   -3.2618 C.2       1 <0>         0.4567
     13 O1          0.3504    7.0449   -3.7092 O.2       1 <0>        -0.4850
     14 O2         -1.8166    6.7586   -4.0340 O.3       1 <0>        -0.3513
     15 C11        -1.5257    6.3485   -5.3962 C.3       1 <0>         0.0662
     16 C12        -2.8320    6.0086   -6.1165 C.3       1 <0>        -0.1203
     17 C13        -2.5254    5.5765   -7.5519 C.3       1 <0>        -0.1234
     18 C14        -3.8317    5.2365   -8.2722 C.3       1 <0>        -0.1534
     19 N1          0.2930    7.8369   -1.2115 N.pl3     1 <0>        -1.1034
     20 S1          0.5361    7.5028    0.3922 S.o2      1 <0>         2.6785
     21 O3         -0.5813    8.0335    1.0915 O.2       1 <0>        -0.9423
     22 O4          1.8721    7.8854    0.6887 O.2       1 <0>        -0.9479
     23 C15         0.4608    5.7522    0.5769 C.ar      1 <0>        -0.6775
     24 C16         1.6263    4.9980    0.4526 C.ar      1 <0>        -0.0511
     25 C17         1.6029    3.6442    0.5896 C.ar      1 <0>        -0.1072
     26 C18         0.3869    2.9936    0.8603 C.ar      1 <0>        -0.0097
     27 C19         0.3231    1.5974    1.0078 C.ar      1 <0>        -0.1182
     28 C20        -0.8724    1.0019    1.2692 C.ar      1 <0>        -0.0873
     29 C21        -2.0388    1.7556    1.3879 C.ar      1 <0>        -0.1141
     30 C22        -2.0142    3.1100    1.2571 C.ar      1 <0>        -0.0946
     31 C23        -0.7982    3.7604    0.9866 C.ar      1 <0>        -0.0797
     32 C24        -0.7346    5.1565    0.8382 C.ar      1 <0>         0.0143
     33 N2         -1.1054   11.5847    3.6806 N.pl3     1 <0>        -0.7826
     34 H3         -3.0611   10.0555    3.2518 H         1 <0>         0.1303
     35 H4         -4.5188    8.5264    1.9919 H         1 <0>         0.1422
     36 H5         -3.9817    7.9486   -0.3385 H         1 <0>         0.1410
     37 H6         -0.5038   10.4088   -0.1703 H         1 <0>         0.1199
     38 H7         -1.3556    9.6032   -2.2934 H         1 <0>         0.0973
     39 H8         -2.8054    8.5728   -2.3614 H         1 <0>         0.1156
     40 H9         -1.0224    7.1609   -5.9205 H         1 <0>         0.0759
     41 H10        -0.8799    5.4705   -5.3812 H         1 <0>         0.0748
     42 H11        -3.3353    5.1963   -5.5922 H         1 <0>         0.0763
     43 H12        -3.4778    6.8866   -6.1315 H         1 <0>         0.0768
     44 H13        -2.0221    6.3888   -8.0761 H         1 <0>         0.0668
     45 H14        -1.8797    4.6985   -7.5369 H         1 <0>         0.0666
     46 H15        -4.3350    4.4242   -7.7479 H         1 <0>         0.0569
     47 H16        -4.4775    6.1146   -8.2872 H         1 <0>         0.0570
     48 H17        -3.6133    4.9287   -9.2948 H         1 <0>         0.0604
     49 H18         1.0038    8.2366   -1.7368 H         1 <0>         0.4311
     50 H19         2.5621    5.4955    0.2450 H         1 <0>         0.1385
     51 H20         2.5139    3.0727    0.4904 H         1 <0>         0.1400
     52 H21         1.2180    1.0002    0.9140 H         1 <0>         0.1363
     53 H22        -0.9187   -0.0713    1.3817 H         1 <0>         0.1333
     54 H23        -2.9754    1.2577    1.5912 H         1 <0>         0.1328
     55 H24        -2.9253    3.6814    1.3555 H         1 <0>         0.1342
     56 H25        -1.6297    5.7536    0.9318 H         1 <0>         0.1450
     57 H26        -1.8950   11.2136    4.1046 H         1 <0>         0.4426
     58 H27        -0.5282   12.1881    4.1742 H         1 <0>         0.4296
     59 N3          0.2578   11.7270    1.7423 N.pl3     1 <0>        -0.7662
     60 H28         0.4393   11.4510    0.7701 H         1 <0>         0.4561
@<TRIPOS>BOND
     1    1   59 1
     2    2    3 1
     3    2   33 1
     4    2   59 2
     5    3    8 ar
     6    3    4 ar
     7    4    5 ar
     8    4   34 1
     9    5    6 ar
    10    5   35 1
    11    6    7 ar
    12    6   36 1
    13    7    8 ar
    14    7    9 1
    15    8   37 1
    16    9   10 1
    17    9   38 1
    18    9   39 1
    19   10   11 1
    20   10   12 1
    21   10   19 1
    22   12   13 2
    23   12   14 1
    24   14   15 1
    25   15   16 1
    26   15   40 1
    27   15   41 1
    28   16   17 1
    29   16   42 1
    30   16   43 1
    31   17   18 1
    32   17   44 1
    33   17   45 1
    34   18   46 1
    35   18   47 1
    36   18   48 1
    37   19   20 1
    38   19   49 1
    39   20   21 2
    40   20   22 2
    41   20   23 1
    42   23   32 ar
    43   23   24 ar
    44   24   25 ar
    45   24   50 1
    46   25   26 ar
    47   25   51 1
    48   26   31 ar
    49   26   27 ar
    50   27   28 ar
    51   27   52 1
    52   28   29 ar
    53   28   53 1
    54   29   30 ar
    55   29   54 1
    56   30   31 ar
    57   30   55 1
    58   31   32 ar
    59   32   56 1
    60   33   57 1
    61   33   58 1
    62   59   60 1
@<TRIPOS>MOLECULE
ZINC03834153
   68    71     0     0     0
SMALL
USER_CHARGES

@<TRIPOS>ATOM
      1 H1         -2.6537    3.3343   -0.7921 H         1 <0>         0.4434
      2 C1         -0.9201    2.3123   -0.4849 C.cat     1 <0>         0.5963
      3 C2         -0.3766    0.9538   -0.2566 C.ar      1 <0>        -0.1376
      4 C3          0.9969    0.7656   -0.1039 C.ar      1 <0>        -0.0420
      5 C4          1.4966   -0.5017    0.1151 C.ar      1 <0>        -0.0991
      6 C5          0.6393   -1.5863    0.1706 C.ar      1 <0>        -0.0361
      7 C6         -0.7231   -1.4068    0.0137 C.ar      1 <0>        -0.0622
      8 C7         -1.2355   -0.1432   -0.1992 C.ar      1 <0>        -0.0387
      9 C8         -1.6501   -2.5934    0.0761 C.3       1 <0>        -0.1075
     10 C9         -1.8244   -3.1786   -1.3268 C.3       1 <0>         0.1425
     11 H2         -0.8566   -3.5056   -1.7070 H         1 <0>         0.1118
     12 C10        -2.7642   -4.3552   -1.2670 C.2       1 <0>         0.5119
     13 O1         -3.8624   -4.2804   -1.7761 O.2       1 <0>        -0.5171
     14 N1         -2.3843   -5.4903   -0.6477 N.am      1 <0>        -0.5985
     15 C11        -3.2446   -6.6812   -0.6862 C.3       1 <0>         0.1156
     16 C12        -3.2709   -7.2251   -2.1142 C.3       1 <0>        -0.1395
     17 C13        -1.9188   -7.8866   -2.4300 C.3       1 <0>        -0.1263
     18 C14        -0.8857   -6.8075   -2.7335 C.3       1 <0>        -0.1198
     19 C15         0.2082   -6.7801   -1.6505 C.3       1 <0>        -0.1184
     20 C16        -0.4335   -6.8776   -0.2663 C.3       1 <0>        -0.1526
     21 C17        -1.1223   -5.5483    0.0705 C.3       1 <0>         0.0950
     22 N2         -2.3785   -2.1556   -2.2171 N.pl3     1 <0>        -1.1003
     23 S1         -1.3677   -1.2385   -3.1549 S.o2      1 <0>         2.6814
     24 O2         -2.1961   -0.3696   -3.9151 O.2       1 <0>        -0.9568
     25 O3         -0.3432   -0.7565   -2.2962 O.2       1 <0>        -0.9436
     26 C18        -0.5919   -2.3269   -4.3030 C.ar      1 <0>        -0.6819
     27 C19         0.6156   -2.9349   -3.9642 C.ar      1 <0>        -0.0549
     28 C20         1.2381   -3.7848   -4.8257 C.ar      1 <0>        -0.1082
     29 C21         0.6635   -4.0464   -6.0812 C.ar      1 <0>        -0.0087
     30 C22         1.2802   -4.9130   -6.9999 C.ar      1 <0>        -0.1211
     31 C23         0.6943   -5.1430   -8.2064 C.ar      1 <0>        -0.0857
     32 C24        -0.5104   -4.5308   -8.5475 C.ar      1 <0>        -0.1151
     33 C25        -1.1361   -3.6857   -7.6836 C.ar      1 <0>        -0.0920
     34 C26        -0.5617   -3.4240   -6.4280 C.ar      1 <0>        -0.0782
     35 C27        -1.1780   -2.5569   -5.5096 C.ar      1 <0>         0.0264
     36 N3         -0.0689    3.3943   -0.5412 N.pl3     1 <0>        -0.7824
     37 H3          1.6675    1.6108   -0.1520 H         1 <0>         0.1296
     38 H4          2.5595   -0.6480    0.2386 H         1 <0>         0.1413
     39 H5          1.0356   -2.5770    0.3374 H         1 <0>         0.1369
     40 H6         -2.2996   -0.0042   -0.3209 H         1 <0>         0.1220
     41 H7         -1.2266   -3.3509    0.7357 H         1 <0>         0.1075
     42 H8         -2.6196   -2.2773    0.4611 H         1 <0>         0.0972
     43 H9         -2.8447   -7.4415   -0.0152 H         1 <0>         0.0906
     44 H10        -4.2536   -6.4122   -0.3737 H         1 <0>         0.0779
     45 H11        -3.4479   -6.4067   -2.8122 H         1 <0>         0.0739
     46 H12        -4.0679   -7.9629   -2.2070 H         1 <0>         0.0755
     47 H13        -2.0271   -8.5400   -3.2957 H         1 <0>         0.0624
     48 H14        -1.5912   -8.4722   -1.5710 H         1 <0>         0.0726
     49 H15        -1.3803   -5.8368   -2.7687 H         1 <0>         0.0568
     50 H16        -0.4275   -7.0112   -3.7013 H         1 <0>         0.0571
     51 H17         0.7692   -5.8486   -1.7253 H         1 <0>         0.0599
     52 H18         0.8843   -7.6225   -1.7967 H         1 <0>         0.0671
     53 H19         0.3356   -7.0871    0.4771 H         1 <0>         0.0796
     54 H20        -1.1710   -7.6802   -0.2631 H         1 <0>         0.0887
     55 H21        -0.4867   -4.7177   -0.2364 H         1 <0>         0.0820
     56 H22        -1.3075   -5.4925    1.1432 H         1 <0>         0.0761
     57 H23        -3.3376   -2.0156   -2.2574 H         1 <0>         0.4292
     58 H24         1.0618   -2.7318   -3.0019 H         1 <0>         0.1361
     59 H25         2.1716   -4.2517   -4.5481 H         1 <0>         0.1370
     60 H26         2.2140   -5.3944   -6.7493 H         1 <0>         0.1350
     61 H27         1.1702   -5.8096   -8.9104 H         1 <0>         0.1327
     62 H28        -0.9539   -4.7299   -9.5119 H         1 <0>         0.1329
     63 H29        -2.0692   -3.2181   -7.9616 H         1 <0>         0.1349
     64 H30        -2.1115   -2.0753   -5.7602 H         1 <0>         0.1430
     65 H31         0.8863    3.2661   -0.4312 H         1 <0>         0.4427
     66 H32        -0.4248    4.2841   -0.6906 H         1 <0>         0.4296
     67 N4         -2.2314    2.4195   -0.6327 N.pl3     1 <0>        -0.7652
     68 H33        -2.8234    1.5818   -0.5868 H         1 <0>         0.4569
@<TRIPOS>BOND
     1    1   67 1
     2    2    3 1
     3    2   36 1
     4    2   67 2
     5    3    8 ar
     6    3    4 ar
     7    4    5 ar
     8    4   37 1
     9    5    6 ar
    10    5   38 1
    11    6    7 ar
    12    6   39 1
    13    7    8 ar
    14    7    9 1
    15    8   40 1
    16    9   10 1
    17    9   41 1
    18    9   42 1
    19   10   11 1
    20   10   12 1
    21   10   22 1
    22   12   13 2
    23   12   14 am
    24   14   21 1
    25   14   15 1
    26   15   16 1
    27   15   43 1
    28   15   44 1
    29   16   17 1
    30   16   45 1
    31   16   46 1
    32   17   18 1
    33   17   47 1
    34   17   48 1
    35   18   19 1
    36   18   49 1
    37   18   50 1
    38   19   20 1
    39   19   51 1
    40   19   52 1
    41   20   21 1
    42   20   53 1
    43   20   54 1
    44   21   55 1
    45   21   56 1
    46   22   23 1
    47   22   57 1
    48   23   24 2
    49   23   25 2
    50   23   26 1
    51   26   35 ar
    52   26   27 ar
    53   27   28 ar
    54   27   58 1
    55   28   29 ar
    56   28   59 1
    57   29   34 ar
    58   29   30 ar
    59   30   31 ar
    60   30   60 1
    61   31   32 ar
    62   31   61 1
    63   32   33 ar
    64   32   62 1
    65   33   34 ar
    66   33   63 1
    67   34   35 ar
    68   35   64 1
    69   36   65 1
    70   36   66 1
    71   67   68 1
@<TRIPOS>MOLECULE
ZINC03834154
   65    68     0     0     0
SMALL
USER_CHARGES

@<TRIPOS>ATOM
      1 H1          4.2611    4.1110    5.2493 H         1 <0>         0.4465
      2 C1          2.7684    2.7671    5.5807 C.cat     1 <0>         0.6011
      3 C2          1.9230    1.7540    4.9084 C.ar      1 <0>        -0.1495
      4 C3          0.9675    1.0449    5.6361 C.ar      1 <0>        -0.0498
      5 C4          0.1829    0.1023    5.0041 C.ar      1 <0>        -0.1021
      6 C5          0.3426   -0.1404    3.6514 C.ar      1 <0>        -0.0449
      7 C6          1.2880    0.5600    2.9242 C.ar      1 <0>        -0.0819
      8 C7          2.0824    1.5016    3.5463 C.ar      1 <0>        -0.0624
      9 C8          1.4553    0.2900    1.4511 C.3       1 <0>        -0.0840
     10 C9          0.5311    1.2138    0.6552 C.3       1 <0>         0.1391
     11 H2          0.7313    2.2501    0.9271 H         1 <0>         0.1180
     12 C10         0.7797    1.0242   -0.8190 C.2       1 <0>         0.5020
     13 O1          0.1114    0.2327   -1.4498 O.2       1 <0>        -0.4750
     14 N1          1.7446    1.7343   -1.4366 N.am      1 <0>        -0.6309
     15 C11         2.6328    2.6240   -0.6731 C.3       1 <0>         0.0723
     16 C12         4.0861    2.2863   -1.0420 C.3       1 <0>        -0.0189
     17 C13         3.4103    1.3501   -3.1746 C.3       1 <0>        -0.0153
     18 C14         1.9333    1.6448   -2.8924 C.3       1 <0>         0.0855
     19 C15         5.6547    2.2110   -2.8848 C.3       1 <0>        -0.0433
     20 N2         -0.8645    0.8896    0.9607 N.pl3     1 <0>        -1.0977
     21 S1         -2.0021    2.0921    1.0102 S.o2      1 <0>         2.6856
     22 O2         -3.2448    1.4640    1.2940 O.2       1 <0>        -0.9362
     23 O3         -1.4664    3.1245    1.8265 O.2       1 <0>        -0.9502
     24 C16        -2.1323    2.7535   -0.6177 C.ar      1 <0>        -0.6876
     25 C17        -1.3208    3.8237   -0.9907 C.ar      1 <0>        -0.0572
     26 C18        -1.3925    4.3545   -2.2417 C.ar      1 <0>        -0.1150
     27 C19        -2.3053    3.8256   -3.1702 C.ar      1 <0>        -0.0098
     28 C20        -2.4125    4.3516   -4.4690 C.ar      1 <0>        -0.1276
     29 C21        -3.3077    3.8137   -5.3416 C.ar      1 <0>        -0.0801
     30 C22        -4.1230    2.7472   -4.9669 C.ar      1 <0>        -0.1142
     31 C23        -4.0470    2.2123   -3.7177 C.ar      1 <0>        -0.0871
     32 C24        -3.1342    2.7410   -2.7892 C.ar      1 <0>        -0.0774
     33 C25        -3.0274    2.2156   -1.4901 C.ar      1 <0>         0.0426
     34 N3          2.6120    3.0106    6.9278 N.pl3     1 <0>        -0.7730
     35 H3          0.8425    1.2329    6.6923 H         1 <0>         0.1429
     36 H4         -0.5573   -0.4474    5.5666 H         1 <0>         0.1556
     37 H5         -0.2737   -0.8794    3.1611 H         1 <0>         0.1480
     38 H6          2.8233    2.0448    2.9785 H         1 <0>         0.1315
     39 H7          1.1998   -0.7486    1.2408 H         1 <0>         0.1102
     40 H8          2.4900    0.4752    1.1629 H         1 <0>         0.0966
     41 H9          2.4187    3.6619   -0.9283 H         1 <0>         0.1061
     42 H10         2.4786    2.4672    0.3944 H         1 <0>         0.1230
     43 H11         4.3278    1.2811   -0.6964 H         1 <0>         0.1370
     44 H12         4.7565    3.0043   -0.5695 H         1 <0>         0.1440
     45 H13         3.6614    0.3580   -2.7994 H         1 <0>         0.1374
     46 H14         3.5902    1.3889   -4.2489 H         1 <0>         0.1461
     47 H15         1.3164    0.8402   -3.2928 H         1 <0>         0.1387
     48 H16         1.6500    2.5891   -3.3571 H         1 <0>         0.0996
     49 H17         5.7530    2.3413   -3.9626 H         1 <0>         0.1274
     50 H18         6.2496    2.9666   -2.3718 H         1 <0>         0.1250
     51 H19         6.0083    1.2186   -2.6051 H         1 <0>         0.1251
     52 H20        -1.1230   -0.0299    1.1300 H         1 <0>         0.4299
     53 H21        -0.6218    4.2350   -0.2775 H         1 <0>         0.1292
     54 H22        -0.7548    5.1812   -2.5179 H         1 <0>         0.1329
     55 H23        -1.7873    5.1780   -4.7733 H         1 <0>         0.1332
     56 H24        -3.3879    4.2196   -6.3392 H         1 <0>         0.1341
     57 H25        -4.8257    2.3392   -5.6784 H         1 <0>         0.1356
     58 H26        -4.6854    1.3862   -3.4414 H         1 <0>         0.1378
     59 H27        -3.6528    1.3893   -1.1857 H         1 <0>         0.1470
     60 H28         1.9481    2.5185    7.4357 H         1 <0>         0.4455
     61 H29         3.1657    3.6741    7.3682 H         1 <0>         0.4343
     62 N4          3.6554    3.4041    4.8322 N.pl3     1 <0>        -0.7635
     63 H30         3.7337    3.1866    3.8318 H         1 <0>         0.4535
     64 N5          4.2357    2.3822   -2.5103 N.4       1 <0>        -0.3970
     65 H31         3.9195    3.3095   -2.8172 H         1 <0>         0.4319
@<TRIPOS>BOND
     1    1   62 1
     2    2    3 1
     3    2   34 1
     4    2   62 2
     5    3    8 ar
     6    3    4 ar
     7    4    5 ar
     8    4   35 1
     9    5    6 ar
    10    5   36 1
    11    6    7 ar
    12    6   37 1
    13    7    8 ar
    14    7    9 1
    15    8   38 1
    16    9   10 1
    17    9   39 1
    18    9   40 1
    19   10   11 1
    20   10   12 1
    21   10   20 1
    22   12   13 2
    23   12   14 am
    24   14   18 1
    25   14   15 1
    26   15   16 1
    27   15   41 1
    28   15   42 1
    29   16   43 1
    30   16   44 1
    31   16   64 1
    32   17   18 1
    33   17   45 1
    34   17   46 1
    35   17   64 1
    36   18   47 1
    37   18   48 1
    38   19   49 1
    39   19   50 1
    40   19   51 1
    41   19   64 1
    42   20   21 1
    43   20   52 1
    44   21   22 2
    45   21   23 2
    46   21   24 1
    47   24   33 ar
    48   24   25 ar
    49   25   26 ar
    50   25   53 1
    51   26   27 ar
    52   26   54 1
    53   27   32 ar
    54   27   28 ar
    55   28   29 ar
    56   28   55 1
    57   29   30 ar
    58   29   56 1
    59   30   31 ar
    60   30   57 1
    61   31   32 ar
    62   31   58 1
    63   32   33 ar
    64   33   59 1
    65   34   60 1
    66   34   61 1
    67   62   63 1
    68   64   65 1
@<TRIPOS>MOLECULE
ZINC03834155
   59    62     0     0     0
SMALL
USER_CHARGES

@<TRIPOS>ATOM
      1 H1          4.3200    4.1324    5.2056 H         1 <0>         0.4446
      2 C1          2.8510    2.7674    5.5565 C.cat     1 <0>         0.6016
      3 C2          2.0077    1.7462    4.8943 C.ar      1 <0>        -0.1523
      4 C3          1.0743    1.0213    5.6350 C.ar      1 <0>        -0.0557
      5 C4          0.2914    0.0710    5.0124 C.ar      1 <0>        -0.1069
      6 C5          0.4311   -0.1638    3.6560 C.ar      1 <0>        -0.0463
      7 C6          1.3547    0.5522    2.9160 C.ar      1 <0>        -0.0721
      8 C7          2.1471    1.5016    3.5285 C.ar      1 <0>        -0.0586
      9 C8          1.5002    0.2905    1.4391 C.3       1 <0>        -0.0855
     10 C9          0.5505    1.2053    0.6630 C.3       1 <0>         0.1438
     11 H2          0.7384    2.2427    0.9396 H         1 <0>         0.1144
     12 C10         0.7807    1.0300   -0.8159 C.2       1 <0>         0.5075
     13 O1          0.1110    0.2377   -1.4442 O.2       1 <0>        -0.5072
     14 N1          1.7308    1.7537   -1.4404 N.am      1 <0>        -0.6148
     15 C11         2.6751    2.6726   -0.7882 C.3       1 <0>         0.0915
     16 C12         3.5527    3.2908   -1.8967 C.3       1 <0>        -0.1329
     17 C13         2.6760    3.1220   -3.1656 C.3       1 <0>        -0.1351
     18 C14         1.9910    1.7599   -2.8915 C.3       1 <0>         0.1050
     19 N2         -0.8355    0.8572    0.9862 N.pl3     1 <0>        -1.0970
     20 S1         -1.9907    2.0413    1.0606 S.o2      1 <0>         2.6896
     21 O2         -3.2194    1.3919    1.3575 O.2       1 <0>        -0.9459
     22 O3         -1.4595    3.0762    1.8767 O.2       1 <0>        -0.9542
     23 C15        -2.1546    2.7121   -0.5604 C.ar      1 <0>        -0.6812
     24 C16        -1.3654    3.7973   -0.9372 C.ar      1 <0>        -0.0513
     25 C17        -1.4632    4.3357   -2.1833 C.ar      1 <0>        -0.1115
     26 C18        -2.3810    3.7991   -3.1025 C.ar      1 <0>        -0.0082
     27 C19        -2.5151    4.3326   -4.3958 C.ar      1 <0>        -0.1226
     28 C20        -3.4143    3.7868   -5.2594 C.ar      1 <0>        -0.0865
     29 C21        -4.2073    2.7051   -4.8807 C.ar      1 <0>        -0.1182
     30 C22        -4.1052    2.1627   -3.6367 C.ar      1 <0>        -0.0880
     31 C23        -3.1873    2.6992   -2.7175 C.ar      1 <0>        -0.0770
     32 C24        -3.0537    2.1662   -1.4239 C.ar      1 <0>         0.0375
     33 N3          2.7146    3.0032    6.9071 N.pl3     1 <0>        -0.7792
     34 H3          0.9648    1.2032    6.6939 H         1 <0>         0.1395
     35 H4         -0.4317   -0.4909    5.5850 H         1 <0>         0.1520
     36 H5         -0.1837   -0.9089    3.1731 H         1 <0>         0.1469
     37 H6          2.8709    2.0569    2.9505 H         1 <0>         0.1359
     38 H7          1.2549   -0.7504    1.2285 H         1 <0>         0.1062
     39 H8          2.5273    0.4906    1.1340 H         1 <0>         0.1026
     40 H9          2.1280    3.4569   -0.2652 H         1 <0>         0.0702
     41 H10         3.3015    2.1230   -0.0854 H         1 <0>         0.0690
     42 H11         4.4906    2.7452   -2.0005 H         1 <0>         0.0816
     43 H12         3.7393    4.3455   -1.6943 H         1 <0>         0.0862
     44 H13         3.2927    3.0756   -4.0632 H         1 <0>         0.0897
     45 H14         1.9393    3.9218   -3.2407 H         1 <0>         0.0784
     46 H15         2.6562    0.9397   -3.1612 H         1 <0>         0.0729
     47 H16         1.0548    1.6880   -3.4451 H         1 <0>         0.0804
     48 H17        -1.0772   -0.0674    1.1524 H         1 <0>         0.4265
     49 H18        -0.6627    4.2145   -0.2312 H         1 <0>         0.1304
     50 H19        -0.8426    5.1743   -2.4626 H         1 <0>         0.1342
     51 H20        -1.9072    5.1707   -4.7029 H         1 <0>         0.1331
     52 H21        -3.5151    4.1985   -6.2527 H         1 <0>         0.1313
     53 H22        -4.9137    2.2912   -5.5851 H         1 <0>         0.1320
     54 H23        -4.7265    1.3248   -3.3572 H         1 <0>         0.1351
     55 H24        -3.6617    1.3283   -1.1167 H         1 <0>         0.1452
     56 H25         2.0660    2.5002    7.4242 H         1 <0>         0.4435
     57 H26         3.2670    3.6722    7.3410 H         1 <0>         0.4317
     58 N4          3.7166    3.4194    4.7957 N.pl3     1 <0>        -0.7603
     59 H27         3.7806    3.2072    3.7931 H         1 <0>         0.4587
@<TRIPOS>BOND
     1    1   58 1
     2    2    3 1
     3    2   33 1
     4    2   58 2
     5    3    8 ar
     6    3    4 ar
     7    4    5 ar
     8    4   34 1
     9    5    6 ar
    10    5   35 1
    11    6    7 ar
    12    6   36 1
    13    7    8 ar
    14    7    9 1
    15    8   37 1
    16    9   10 1
    17    9   38 1
    18    9   39 1
    19   10   11 1
    20   10   12 1
    21   10   19 1
    22   12   13 2
    23   12   14 am
    24   14   18 1
    25   14   15 1
    26   15   16 1
    27   15   40 1
    28   15   41 1
    29   16   17 1
    30   16   42 1
    31   16   43 1
    32   17   18 1
    33   17   44 1
    34   17   45 1
    35   18   46 1
    36   18   47 1
    37   19   20 1
    38   19   48 1
    39   20   21 2
    40   20   22 2
    41   20   23 1
    42   23   32 ar
    43   23   24 ar
    44   24   25 ar
    45   24   49 1
    46   25   26 ar
    47   25   50 1
    48   26   31 ar
    49   26   27 ar
    50   27   28 ar
    51   27   51 1
    52   28   29 ar
    53   28   52 1
    54   29   30 ar
    55   29   53 1
    56   30   31 ar
    57   30   54 1
    58   31   32 ar
    59   32   55 1
    60   33   56 1
    61   33   57 1
    62   58   59 1
@<TRIPOS>MOLECULE
ZINC03834156
   57    59     0     0     0
SMALL
USER_CHARGES

@<TRIPOS>ATOM
      1 H1          4.8581    2.2067    0.7804 H         1 <0>         0.4451
      2 C1          2.8893    2.6028    0.4471 C.cat     1 <0>         0.6013
      3 C2          1.5819    1.9540    0.1966 C.ar      1 <0>        -0.1510
      4 C3          0.4371    2.7310    0.0198 C.ar      1 <0>        -0.0551
      5 C4         -0.7782    2.1206   -0.2133 C.ar      1 <0>        -0.1063
      6 C5         -0.8627    0.7409   -0.2718 C.ar      1 <0>        -0.0466
      7 C6          0.2692   -0.0349   -0.0977 C.ar      1 <0>        -0.0728
      8 C7          1.4904    0.5639    0.1360 C.ar      1 <0>        -0.0598
      9 C8          0.1686   -1.5371   -0.1640 C.3       1 <0>        -0.0957
     10 C9          0.3844   -1.9996   -1.6063 C.3       1 <0>         0.1398
     11 H2          1.3557   -1.6516   -1.9580 H         1 <0>         0.1179
     12 C10         0.3394   -3.5049   -1.6633 C.2       1 <0>         0.4946
     13 O1         -0.5817   -4.0633   -2.2207 O.2       1 <0>        -0.4995
     14 N1          1.3227   -4.2304   -1.0948 N.am      1 <0>        -0.6131
     15 C11         1.3639   -5.6943   -1.2388 C.3       1 <0>         0.0775
     16 C12         2.7727   -6.0899   -1.7098 C.3       1 <0>         0.0468
     17 O2          3.7406   -5.5113   -0.8311 O.3       1 <0>        -0.3720
     18 C13         3.7392   -4.0818   -0.8186 C.3       1 <0>         0.0434
     19 C14         2.3832   -3.5829   -0.3066 C.3       1 <0>         0.0613
     20 N2         -0.6704   -1.4468   -2.4594 N.pl3     1 <0>        -1.0953
     21 S1         -0.3279   -1.0038   -4.0178 S.o2      1 <0>         2.6915
     22 O3         -1.5448   -0.5373   -4.5843 O.2       1 <0>        -0.9460
     23 O4          0.8440   -0.2020   -3.9639 O.2       1 <0>        -0.9585
     24 C15         0.1052   -2.4704   -4.8932 C.ar      1 <0>        -0.6813
     25 C16         1.4241   -2.8815   -4.9431 C.ar      1 <0>        -0.0238
     26 C17         1.7632   -4.0345   -5.6261 C.ar      1 <0>        -0.1422
     27 C18         0.7849   -4.7712   -6.2672 C.ar      1 <0>        -0.0187
     28 C19        -0.5332   -4.3575   -6.2213 C.ar      1 <0>        -0.1359
     29 C20        -0.8731   -3.2069   -5.5346 C.ar      1 <0>         0.0027
     30 C21         1.1554   -6.0255   -7.0157 C.3       1 <0>        -0.1288
     31 N3          2.9765    3.9766    0.5063 N.pl3     1 <0>        -0.7786
     32 H3          0.5019    3.8080    0.0649 H         1 <0>         0.1400
     33 H4         -1.6645    2.7213   -0.3547 H         1 <0>         0.1524
     34 H5         -1.8161    0.2677   -0.4545 H         1 <0>         0.1468
     35 H6          2.3734   -0.0429    0.2721 H         1 <0>         0.1353
     36 H7          0.9300   -1.9808    0.4776 H         1 <0>         0.1074
     37 H8         -0.8191   -1.8504    0.1741 H         1 <0>         0.1064
     38 H9          1.1494   -6.1638   -0.2787 H         1 <0>         0.0824
     39 H10         0.6265   -6.0116   -1.9760 H         1 <0>         0.1048
     40 H11         2.9365   -5.7242   -2.7234 H         1 <0>         0.0589
     41 H12         2.8697   -7.1755   -1.6944 H         1 <0>         0.1123
     42 H13         3.9066   -3.7088   -1.8290 H         1 <0>         0.0582
     43 H14         4.5311   -3.7227   -0.1612 H         1 <0>         0.1088
     44 H15         2.3210   -2.5012   -0.4263 H         1 <0>         0.0894
     45 H16         2.2692   -3.8428    0.7458 H         1 <0>         0.0890
     46 H17        -1.5696   -1.3404   -2.1114 H         1 <0>         0.4255
     47 H18         2.1890   -2.3037   -4.4456 H         1 <0>         0.1302
     48 H19         2.7931   -4.3579   -5.6617 H         1 <0>         0.1308
     49 H20        -1.2976   -4.9331   -6.7222 H         1 <0>         0.1351
     50 H21        -1.9029   -2.8835   -5.4991 H         1 <0>         0.1394
     51 H22         1.3883   -5.7756   -8.0508 H         1 <0>         0.0829
     52 H23         2.0266   -6.4841   -6.5479 H         1 <0>         0.0735
     53 H24         0.3192   -6.7244   -6.9900 H         1 <0>         0.0758
     54 H25         2.1815    4.5187    0.3840 H         1 <0>         0.4435
     55 H26         3.8328    4.4016    0.6704 H         1 <0>         0.4320
     56 N4          3.9359    1.8074    0.6055 N.pl3     1 <0>        -0.7600
     57 H27         3.8192    0.7887    0.5523 H         1 <0>         0.4583
@<TRIPOS>BOND
     1    1   56 1
     2    2    3 1
     3    2   31 1
     4    2   56 2
     5    3    8 ar
     6    3    4 ar
     7    4    5 ar
     8    4   32 1
     9    5    6 ar
    10    5   33 1
    11    6    7 ar
    12    6   34 1
    13    7    8 ar
    14    7    9 1
    15    8   35 1
    16    9   10 1
    17    9   36 1
    18    9   37 1
    19   10   11 1
    20   10   12 1
    21   10   20 1
    22   12   13 2
    23   12   14 am
    24   14   19 1
    25   14   15 1
    26   15   16 1
    27   15   38 1
    28   15   39 1
    29   16   17 1
    30   16   40 1
    31   16   41 1
    32   17   18 1
    33   18   19 1
    34   18   42 1
    35   18   43 1
    36   19   44 1
    37   19   45 1
    38   20   21 1
    39   20   46 1
    40   21   22 2
    41   21   23 2
    42   21   24 1
    43   24   29 ar
    44   24   25 ar
    45   25   26 ar
    46   25   47 1
    47   26   27 ar
    48   26   48 1
    49   27   28 ar
    50   27   30 1
    51   28   29 ar
    52   28   49 1
    53   29   50 1
    54   30   51 1
    55   30   52 1
    56   30   53 1
    57   31   54 1
    58   31   55 1
    59   56   57 1
@<TRIPOS>MOLECULE
ZINC03834157
   88    90     0     0     0
SMALL
USER_CHARGES

@<TRIPOS>ATOM
      1 H1         -3.3944   -2.8628   -3.9965 H         1 <0>         0.4440
      2 C1         -1.8089   -2.6401   -5.2539 C.cat     1 <0>         0.6015
      3 C2         -0.4077   -2.1646   -5.3121 C.ar      1 <0>        -0.1461
      4 C3          0.3053   -2.2316   -6.5091 C.ar      1 <0>        -0.0477
      5 C4          1.6105   -1.7871   -6.5570 C.ar      1 <0>        -0.0986
      6 C5          2.2124   -1.2760   -5.4208 C.ar      1 <0>        -0.0413
      7 C6          1.5104   -1.2066   -4.2311 C.ar      1 <0>        -0.0695
      8 C7          0.2060   -1.6529   -4.1694 C.ar      1 <0>        -0.0574
      9 C8          2.1732   -0.6482   -2.9983 C.3       1 <0>        -0.0988
     10 C9          1.9354    0.8617   -2.9309 C.3       1 <0>         0.1384
     11 H2          0.8652    1.0633   -2.9769 H         1 <0>         0.1129
     12 C10         2.4931    1.4010   -1.6390 C.2       1 <0>         0.5079
     13 O1          3.5844    1.9300   -1.6235 O.2       1 <0>        -0.5055
     14 N1          1.7793    1.2953   -0.5006 N.am      1 <0>        -0.6060
     15 C11         0.4889    0.5919   -0.4895 C.3       1 <0>         0.0782
     16 C12         0.5450   -0.5081    0.5842 C.3       1 <0>         0.1031
     17 N2          1.0401    0.0833    1.8351 N.pl3     1 <0>        -0.9998
     18 C13         2.3278    0.7915    1.8227 C.3       1 <0>         0.1050
     19 C14         2.2745    1.8867    0.7503 C.3       1 <0>         0.0938
     20 S1          0.1630   -0.0464    3.2338 S.o2      1 <0>         2.6060
     21 O2         -0.6144   -1.2241    3.0662 O.2       1 <0>        -0.9512
     22 O3          1.1257    0.0440    4.2751 O.2       1 <0>        -0.9433
     23 C15        -0.9115    1.4150    3.2475 C.3       1 <0>        -0.6734
     24 N3          2.6037    1.5123   -4.0606 N.pl3     1 <0>        -1.1005
     25 S2          1.7072    2.2744   -5.2259 S.o2      1 <0>         2.6843
     26 O4          2.6323    2.8695   -6.1255 O.2       1 <0>        -0.9387
     27 O5          0.7207    1.3447   -5.6521 O.2       1 <0>        -0.9455
     28 C16         0.8473    3.5964   -4.4402 C.ar      1 <0>        -0.6903
     29 C17         1.4556    4.8297   -4.2998 C.ar      1 <0>         0.0475
     30 C18         0.7793    5.8682   -3.6872 C.ar      1 <0>        -0.1361
     31 C19        -0.5016    5.6705   -3.2065 C.ar      1 <0>        -0.0032
     32 C20        -1.1080    4.4358   -3.3425 C.ar      1 <0>        -0.1461
     33 C21        -0.4333    3.3986   -3.9590 C.ar      1 <0>         0.0223
     34 C22        -1.0943    2.0523   -4.1069 C.3       1 <0>        -0.0858
     35 C23        -2.0490    1.8213   -2.9339 C.3       1 <0>        -0.1569
     36 C24        -1.8796    2.0112   -5.4193 C.3       1 <0>        -0.1261
     37 C25        -1.2371    6.8012   -2.5344 C.3       1 <0>        -0.0662
     38 C26        -0.4493    7.2639   -1.3071 C.3       1 <0>        -0.1458
     39 C27        -1.3854    7.9669   -3.5144 C.3       1 <0>        -0.1479
     40 C28         2.8541    5.0437   -4.8187 C.3       1 <0>        -0.0975
     41 C29         2.7986    5.8537   -6.1156 C.3       1 <0>        -0.1325
     42 C30         3.6741    5.8061   -3.7760 C.3       1 <0>        -0.1486
     43 N4         -2.4109   -3.1500   -6.3836 N.pl3     1 <0>        -0.7799
     44 H3         -0.1632   -2.6310   -7.3964 H         1 <0>         0.1360
     45 H4          2.1636   -1.8384   -7.4832 H         1 <0>         0.1476
     46 H5          3.2345   -0.9296   -5.4632 H         1 <0>         0.1414
     47 H6         -0.3399   -1.6023   -3.2388 H         1 <0>         0.1304
     48 H7          3.2444   -0.8457   -3.0407 H         1 <0>         0.1071
     49 H8          1.7510   -1.1224   -2.1123 H         1 <0>         0.1008
     50 H9         -0.3094    1.2959   -0.2545 H         1 <0>         0.0844
     51 H10         0.3086    0.1431   -1.4663 H         1 <0>         0.0900
     52 H11         1.2192   -1.3021    0.2629 H         1 <0>         0.0843
     53 H12        -0.4527   -0.9173    0.7428 H         1 <0>         0.1073
     54 H13         3.1289    0.0902    1.5897 H         1 <0>         0.0853
     55 H14         2.5092    1.2431    2.7981 H         1 <0>         0.1100
     56 H15         3.2734    2.2933    0.5925 H         1 <0>         0.1120
     57 H16         1.6018    2.6828    1.0700 H         1 <0>         0.0776
     58 H17        -1.5532    1.4024    2.3665 H         1 <0>         0.1255
     59 H18        -1.5281    1.4042    4.1463 H         1 <0>         0.1329
     60 H19        -0.2989    2.3165    3.2380 H         1 <0>         0.1291
     61 H20         3.5714    1.4967   -4.1261 H         1 <0>         0.4301
     62 H21         1.2530    6.8330   -3.5812 H         1 <0>         0.1337
     63 H22        -2.1088    4.2813   -2.9669 H         1 <0>         0.1314
     64 H23        -0.3328    1.2726   -4.1145 H         1 <0>         0.1004
     65 H24        -2.8674    2.5396   -2.9846 H         1 <0>         0.0669
     66 H25        -2.4502    0.8091   -2.9858 H         1 <0>         0.0571
     67 H26        -1.5097    1.9506   -1.9955 H         1 <0>         0.0585
     68 H27        -1.1994    2.1758   -6.2551 H         1 <0>         0.0716
     69 H28        -2.3576    1.0375   -5.5264 H         1 <0>         0.0523
     70 H29        -2.6412    2.7910   -5.4117 H         1 <0>         0.0512
     71 H30        -2.2245    6.4591   -2.2246 H         1 <0>         0.0822
     72 H31        -0.3437    6.4335   -0.6089 H         1 <0>         0.0553
     73 H32         0.5382    7.6060   -1.6168 H         1 <0>         0.0599
     74 H33        -0.9813    8.0817   -0.8211 H         1 <0>         0.0655
     75 H34        -1.9466    7.6373   -4.3888 H         1 <0>         0.0579
     76 H35        -1.9173    8.7847   -3.0283 H         1 <0>         0.0658
     77 H36        -0.3979    8.3090   -3.8241 H         1 <0>         0.0601
     78 H37         3.3212    4.0781   -5.0132 H         1 <0>         0.1078
     79 H38         2.4146    6.8517   -5.9044 H         1 <0>         0.0537
     80 H39         3.8002    5.9316   -6.5385 H         1 <0>         0.0677
     81 H40         2.1413    5.3547   -6.8277 H         1 <0>         0.0586
     82 H41         4.6856    5.9608   -4.1514 H         1 <0>         0.0676
     83 H42         3.2070    6.7716   -3.5816 H         1 <0>         0.0580
     84 H43         3.7137    5.2290   -2.8522 H         1 <0>         0.0583
     85 H44        -1.9168   -3.1974   -7.2170 H         1 <0>         0.4434
     86 H45        -3.3287   -3.4615   -6.3455 H         1 <0>         0.4309
     87 N5         -2.4282   -2.5483   -4.0872 N.pl3     1 <0>        -0.7631
     88 H46        -1.9360   -2.1605   -3.2738 H         1 <0>         0.4572
@<TRIPOS>BOND
     1    1   87 1
     2    2    3 1
     3    2   43 1
     4    2   87 2
     5    3    8 ar
     6    3    4 ar
     7    4    5 ar
     8    4   44 1
     9    5    6 ar
    10    5   45 1
    11    6    7 ar
    12    6   46 1
    13    7    8 ar
    14    7    9 1
    15    8   47 1
    16    9   10 1
    17    9   48 1
    18    9   49 1
    19   10   11 1
    20   10   12 1
    21   10   24 1
    22   12   13 2
    23   12   14 am
    24   14   19 1
    25   14   15 1
    26   15   16 1
    27   15   50 1
    28   15   51 1
    29   16   17 1
    30   16   52 1
    31   16   53 1
    32   17   18 1
    33   17   20 1
    34   18   19 1
    35   18   54 1
    36   18   55 1
    37   19   56 1
    38   19   57 1
    39   20   21 2
    40   20   22 2
    41   20   23 1
    42   23   58 1
    43   23   59 1
    44   23   60 1
    45   24   25 1
    46   24   61 1
    47   25   26 2
    48   25   27 2
    49   25   28 1
    50   28   33 ar
    51   28   29 ar
    52   29   30 ar
    53   29   40 1
    54   30   31 ar
    55   30   62 1
    56   31   32 ar
    57   31   37 1
    58   32   33 ar
    59   32   63 1
    60   33   34 1
    61   34   35 1
    62   34   36 1
    63   34   64 1
    64   35   65 1
    65   35   66 1
    66   35   67 1
    67   36   68 1
    68   36   69 1
    69   36   70 1
    70   37   38 1
    71   37   39 1
    72   37   71 1
    73   38   72 1
    74   38   73 1
    75   38   74 1
    76   39   75 1
    77   39   76 1
    78   39   77 1
    79   40   41 1
    80   40   42 1
    81   40   78 1
    82   41   79 1
    83   41   80 1
    84   41   81 1
    85   42   82 1
    86   42   83 1
    87   42   84 1
    88   43   85 1
    89   43   86 1
    90   87   88 1
@<TRIPOS>MOLECULE
ZINC03834158
   33    34     0     0     0
SMALL
USER_CHARGES

@<TRIPOS>ATOM
      1 C1         -3.5106   -7.0840    7.2955 C.3       1 <0>        -0.1563
      2 C2         -3.6122   -6.2617    6.0093 C.3       1 <0>         0.0434
      3 O1         -2.4363   -5.4635    5.8601 O.3       1 <0>        -0.2525
      4 C3         -2.3665   -4.6707    4.7647 C.2       1 <0>         0.3713
      5 C4         -1.2698   -3.9017    4.5896 C.2       1 <0>        -0.2204
      6 C5         -1.1828   -3.0413    3.4106 C.ar      1 <0>         0.0955
      7 C6         -0.0797   -2.2215    3.1662 C.ar      1 <0>        -0.1074
      8 C7         -0.0559   -1.4443    2.0418 C.ar      1 <0>        -0.0456
      9 C8         -1.1185   -1.4512    1.1465 C.ar      1 <0>        -0.1383
     10 C9         -2.2122   -2.2439    1.3595 C.ar      1 <0>         0.0067
     11 C10        -2.2630   -3.0523    2.4950 C.ar      1 <0>        -0.1924
     12 C11        -3.4041   -3.9251    2.7828 C.2       1 <0>         0.5450
     13 O2         -4.3541   -3.9666    2.0232 O.2       1 <0>        -0.4163
     14 O3         -3.3896   -4.6805    3.8956 O.3       1 <0>        -0.2862
     15 N1         -1.0663   -0.6404    0.0088 N.4       1 <0>        -0.2852
     16 H1         -1.8420    0.0047    0.0197 H         1 <0>         0.4366
     17 H2         -1.1197   -1.2168   -0.8177 H         1 <0>         0.4173
     18 C12         0.0021   -0.0041    0.0020 C.2       1 <0>         0.1837
     19 N2         -0.0169    1.3916    0.0097 N.pl3     1 <0>        -0.7983
     20 N3          1.2202   -0.6855   -0.0133 N.pl3     1 <0>        -0.8036
     21 Cl1         0.0204   -3.9340    5.7507 Cl        1 <0>         0.0018
     22 H3         -2.6356   -7.7320    7.2443 H         1 <0>         0.0739
     23 H4         -3.4162   -6.4129    8.1493 H         1 <0>         0.0739
     24 H5         -4.4075   -7.6928    7.4093 H         1 <0>         0.0924
     25 H6         -4.4871   -5.6136    6.0605 H         1 <0>         0.0820
     26 H7         -3.7066   -6.9327    5.1555 H         1 <0>         0.0821
     27 H8          0.7500   -2.2047    3.8574 H         1 <0>         0.1617
     28 H9          0.7988   -0.8130    1.8488 H         1 <0>         0.1747
     29 H10        -3.0299   -2.2443    0.6540 H         1 <0>         0.1646
     30 H11         0.8165    1.8880    0.0044 H         1 <0>         0.4275
     31 H12        -0.8634    1.8652    0.0163 H         1 <0>         0.4197
     32 H13         2.0536   -0.1891   -0.0186 H         1 <0>         0.4267
     33 H14         1.2334   -1.6554   -0.0186 H         1 <0>         0.4220
@<TRIPOS>BOND
     1    1    2 1
     2    1   22 1
     3    1   23 1
     4    1   24 1
     5    2    3 1
     6    2   25 1
     7    2   26 1
     8    3    4 1
     9    4   14 1
    10    4    5 2
    11    5    6 1
    12    5   21 1
    13    6   11 ar
    14    6    7 ar
    15    7    8 ar
    16    7   27 1
    17    8    9 ar
    18    8   28 1
    19    9   10 ar
    20    9   15 1
    21   10   11 ar
    22   10   29 1
    23   11   12 1
    24   12   13 2
    25   12   14 1
    26   15   16 1
    27   15   17 1
    28   15   18 2
    29   18   19 1
    30   18   20 1
    31   19   30 1
    32   19   31 1
    33   20   32 1
    34   20   33 1
@<TRIPOS>MOLECULE
ZINC03834160
   35    37     0     0     0
SMALL
USER_CHARGES

@<TRIPOS>ATOM
      1 H1         -4.4269    4.0899    0.0675 H         1 <0>         0.4420
      2 C1         -3.9796    2.1033    0.0520 C.cat     1 <0>         0.6040
      3 C2         -2.8476    1.1506    0.0361 C.ar      1 <0>        -0.1885
      4 C3         -3.0937   -0.2282    0.0305 C.ar      1 <0>        -0.0578
      5 C4         -2.0614   -1.1194    0.0158 C.ar      1 <0>        -0.1116
      6 C5         -0.7441   -0.6665    0.0052 C.ar      1 <0>         0.1498
      7 C6         -0.4839    0.7174    0.0103 C.ar      1 <0>        -0.1124
      8 C7         -1.5412    1.6250    0.0303 C.ar      1 <0>         0.0083
      9 C8          0.9750    0.8553   -0.0031 C.2       1 <0>        -0.1825
     10 C9          1.4850   -0.3860   -0.0147 C.2       1 <0>         0.1105
     11 N1          0.4728   -1.3068   -0.0100 N.pl3     1 <0>        -0.5737
     12 H2          0.5954   -2.2690   -0.0161 H         1 <0>         0.4260
     13 C10         2.9552   -0.7169   -0.0302 C.3       1 <0>        -0.0263
     14 C11         3.4593   -0.6986   -1.4502 C.ar      1 <0>        -0.0929
     15 C12         3.4328   -1.8544   -2.2080 C.ar      1 <0>        -0.1150
     16 C13         3.8908   -1.8364   -3.5123 C.ar      1 <0>        -0.1161
     17 C14         4.3849   -0.6651   -4.0551 C.ar      1 <0>        -0.1140
     18 C15         4.4162    0.4894   -3.2956 C.ar      1 <0>        -0.1157
     19 C16         3.9534    0.4727   -1.9931 C.ar      1 <0>        -0.1079
     20 N2         -5.2752    1.6338    0.0615 N.pl3     1 <0>        -0.7854
     21 H3         -4.1115   -0.5894    0.0383 H         1 <0>         0.1375
     22 H4         -2.2659   -2.1799    0.0120 H         1 <0>         0.1428
     23 H5         -1.3473    2.6874    0.0346 H         1 <0>         0.1364
     24 H6          1.5335    1.7798   -0.0037 H         1 <0>         0.1602
     25 H7          3.5000    0.0212    0.5584 H         1 <0>         0.1091
     26 H8          3.1091   -1.7078    0.3973 H         1 <0>         0.0911
     27 H9          3.0508   -2.7705   -1.7824 H         1 <0>         0.1184
     28 H10         3.8666   -2.7386   -4.1055 H         1 <0>         0.1251
     29 H11         4.7468   -0.6521   -5.0726 H         1 <0>         0.1256
     30 H12         4.8027    1.4045   -3.7197 H         1 <0>         0.1263
     31 H13         3.9782    1.3747   -1.3995 H         1 <0>         0.1244
     32 H14        -5.4450    0.6788    0.0576 H         1 <0>         0.4418
     33 H15        -6.0173    2.2584    0.0719 H         1 <0>         0.4292
     34 N3         -3.6811    3.3940    0.0566 N.pl3     1 <0>        -0.7669
     35 H16        -2.6992    3.6939    0.0491 H         1 <0>         0.4583
@<TRIPOS>BOND
     1    1   34 1
     2    2    3 1
     3    2   20 1
     4    2   34 2
     5    3    8 ar
     6    3    4 ar
     7    4    5 ar
     8    4   21 1
     9    5    6 ar
    10    5   22 1
    11    6   11 1
    12    6    7 ar
    13    7    8 ar
    14    7    9 1
    15    8   23 1
    16    9   10 2
    17    9   24 1
    18   10   11 1
    19   10   13 1
    20   11   12 1
    21   13   14 1
    22   13   25 1
    23   13   26 1
    24   14   19 ar
    25   14   15 ar
    26   15   16 ar
    27   15   27 1
    28   16   17 ar
    29   16   28 1
    30   17   18 ar
    31   17   29 1
    32   18   19 ar
    33   18   30 1
    34   19   31 1
    35   20   32 1
    36   20   33 1
    37   34   35 1
@<TRIPOS>MOLECULE
ZINC03834161
   58    63     0     0     0
SMALL
USER_CHARGES

@<TRIPOS>ATOM
      1 H1          8.2055   -0.1975    4.4376 H         1 <0>         0.4522
      2 C1          7.2274    1.1758    3.2967 C.cat     1 <0>         0.5929
      3 C2          6.0549    1.3517    2.4094 C.ar      1 <0>        -0.1243
      4 C3          5.2015    0.2782    2.1560 C.ar      1 <0>        -0.0513
      5 C4          4.1103    0.4484    1.3287 C.ar      1 <0>        -0.1092
      6 C5          3.8619    1.6808    0.7515 C.ar      1 <0>        -0.0672
      7 C6          4.7080    2.7479    0.9945 C.ar      1 <0>        -0.0806
      8 C7          5.7995    2.5915    1.8241 C.ar      1 <0>        -0.0418
      9 C8          2.6682    1.8600   -0.1507 C.3       1 <0>         0.0876
     10 H2          2.8965    1.5018   -1.1546 H         1 <0>         0.1696
     11 C9          2.2465    3.3423   -0.1950 C.3       1 <0>        -0.1506
     12 H3          2.6318    3.9135    0.6496 H         1 <0>         0.1685
     13 C10         0.6963    3.3149   -0.2464 C.3       1 <0>        -0.1384
     14 H4          0.2395    3.8828    0.5639 H         1 <0>         0.1705
     15 C11         0.3155    1.8239   -0.2067 C.3       1 <0>         0.0434
     16 H5          0.0711    1.4341   -1.1948 H         1 <0>         0.1666
     17 C12         1.3819    1.4091    1.8508 C.3       1 <0>        -0.0132
     18 C13        -0.1284    1.3361    2.1553 C.3       1 <0>        -0.1437
     19 C14        -0.8245    1.6214    0.8098 C.3       1 <0>        -0.1360
     20 C15         0.3809    3.8792   -1.6133 C.2       1 <0>         0.5204
     21 O1         -0.7320    4.0293   -2.0699 O.2       1 <0>        -0.4066
     22 N1          1.5224    4.1868   -2.2403 N.am      1 <0>        -0.5586
     23 C16         2.6302    3.9283   -1.5356 C.2       1 <0>         0.5325
     24 O2          3.7641    4.1319   -1.9127 O.2       1 <0>        -0.4420
     25 C17         1.5565    4.7595   -3.5882 C.3       1 <0>         0.1459
     26 C18         1.6166    3.6485   -4.6047 C.ar      1 <0>        -0.1151
     27 C19         2.8248    3.3057   -5.1833 C.ar      1 <0>        -0.0902
     28 C20         2.8837    2.2870   -6.1155 C.ar      1 <0>        -0.1078
     29 C21         1.7346    1.6060   -6.4734 C.ar      1 <0>        -0.0852
     30 C22         0.5210    1.9436   -5.8978 C.ar      1 <0>         0.0318
     31 C23         0.4624    2.9675   -4.9548 C.ar      1 <0>         0.0489
     32 O3         -0.8316    3.1086   -4.5442 O.3       1 <0>        -0.2928
     33 C24        -1.6272    2.4342   -5.5369 C.3       1 <0>         0.2101
     34 O4         -0.7351    1.4386   -6.0718 O.3       1 <0>        -0.3046
     35 N2          8.0688    2.2382    3.5451 N.pl3     1 <0>        -0.7700
     36 H6          5.3940   -0.6842    2.6066 H         1 <0>         0.1506
     37 H7          3.4487   -0.3822    1.1317 H         1 <0>         0.1484
     38 H8          4.5115    3.7065    0.5375 H         1 <0>         0.1612
     39 H9          6.4566    3.4265    2.0170 H         1 <0>         0.1536
     40 H10         1.9199    0.6515    2.4205 H         1 <0>         0.1441
     41 H11         1.7687    2.4015    2.0826 H         1 <0>         0.1298
     42 H12        -0.3941    0.3422    2.5154 H         1 <0>         0.1080
     43 H13        -0.4030    2.0919    2.8910 H         1 <0>         0.1181
     44 H14        -1.4301    2.5248    0.8824 H         1 <0>         0.1225
     45 H15        -1.4439    0.7733    0.5182 H         1 <0>         0.1132
     46 H16         0.6583    5.3546   -3.7530 H         1 <0>         0.1156
     47 H17         2.4367    5.3941   -3.6913 H         1 <0>         0.1174
     48 H18         3.7245    3.8349   -4.9059 H         1 <0>         0.1427
     49 H19         3.8292    2.0222   -6.5652 H         1 <0>         0.1454
     50 H20         1.7837    0.8102   -7.2020 H         1 <0>         0.1426
     51 H21        -1.9368    3.1297   -6.3169 H         1 <0>         0.0920
     52 H22        -2.4953    1.9626   -5.0763 H         1 <0>         0.1368
     53 H23         7.8932    3.1014    3.1388 H         1 <0>         0.4447
     54 H24         8.8368    2.1231    4.1264 H         1 <0>         0.4382
     55 N3          7.4119   -0.0263    3.8199 N.pl3     1 <0>        -0.7510
     56 H25         6.7561   -0.7864    3.6041 H         1 <0>         0.4602
     57 N4          1.4743    1.1952    0.3936 N.4       1 <0>        -0.3845
     58 H26         1.4985    0.1908    0.1816 H         1 <0>         0.4389
@<TRIPOS>BOND
     1    1   55 1
     2    2    3 1
     3    2   35 1
     4    2   55 2
     5    3    8 ar
     6    3    4 ar
     7    4    5 ar
     8    4   36 1
     9    5    6 ar
    10    5   37 1
    11    6    7 ar
    12    6    9 1
    13    7    8 ar
    14    7   38 1
    15    8   39 1
    16    9   10 1
    17    9   11 1
    18    9   57 1
    19   11   12 1
    20   11   23 1
    21   11   13 1
    22   13   14 1
    23   13   15 1
    24   13   20 1
    25   15   16 1
    26   15   19 1
    27   15   57 1
    28   17   18 1
    29   17   40 1
    30   17   41 1
    31   17   57 1
    32   18   19 1
    33   18   42 1
    34   18   43 1
    35   19   44 1
    36   19   45 1
    37   20   21 2
    38   20   22 am
    39   22   23 am
    40   22   25 1
    41   23   24 2
    42   25   26 1
    43   25   46 1
    44   25   47 1
    45   26   31 ar
    46   26   27 ar
    47   27   28 ar
    48   27   48 1
    49   28   29 ar
    50   28   49 1
    51   29   30 ar
    52   29   50 1
    53   30   34 1
    54   30   31 ar
    55   31   32 1
    56   32   33 1
    57   33   34 1
    58   33   51 1
    59   33   52 1
    60   35   53 1
    61   35   54 1
    62   55   56 1
    63   57   58 1
@<TRIPOS>MOLECULE
ZINC03834162
   54    56     0     0     0
SMALL
USER_CHARGES

@<TRIPOS>ATOM
      1 C1         -2.2308    5.7736    3.8503 C.3       1 <0>        -0.1227
      2 C2         -1.5383    5.2156    2.6337 C.ar      1 <0>        -0.0214
      3 C3         -1.4308    3.8479    2.4677 C.ar      1 <0>        -0.1304
      4 C4         -0.7934    3.3317    1.3486 C.ar      1 <0>         0.1497
      5 C5         -0.2593    4.1894    0.3990 C.ar      1 <0>        -0.2232
      6 C6         -0.3731    5.5608    0.5652 C.ar      1 <0>         0.1076
      7 C7         -1.0117    6.0723    1.6863 C.ar      1 <0>        -0.1237
      8 O1          0.1444    6.4040   -0.3666 O.3       1 <0>        -0.6527
      9 S1          1.5907    6.8007   -0.1073 S.o2      1 <0>         2.6666
     10 O2          1.9028    7.8287   -1.0374 O.2       1 <0>        -0.9006
     11 O3          1.7173    6.9795    1.2967 O.2       1 <0>        -0.9408
     12 C8          2.5947    5.4162   -0.5312 C.ar      1 <0>        -0.6976
     13 C9          2.9042    4.4679    0.4258 C.ar      1 <0>        -0.0027
     14 C10         3.6882    3.3794    0.0924 C.ar      1 <0>        -0.1436
     15 C11         4.1713    3.2435   -1.1960 C.ar      1 <0>        -0.0491
     16 C12         3.8670    4.1937   -2.1522 C.ar      1 <0>        -0.1313
     17 C13         3.0781    5.2810   -1.8202 C.ar      1 <0>         0.0560
     18 Cl1         2.6958    6.4753   -3.0207 Cl        1 <0>        -0.0112
     19 O4         -0.6875    1.9866    1.1861 O.3       1 <0>        -0.3039
     20 C14        -0.0187    1.5258    0.0104 C.3       1 <0>         0.0558
     21 C15         0.0021   -0.0041    0.0020 C.3       1 <0>        -0.0890
     22 C16         0.8464   -0.5090    1.1743 C.3       1 <0>        -0.1374
     23 C17         0.8365   -2.0408    1.1831 C.3       1 <0>         0.1005
     24 N1          1.2794   -2.5241   -0.1318 N.pl3     1 <0>        -0.5799
     25 C18         2.2623   -3.3745   -0.2302 C.cat     1 <0>         0.7475
     26 N2          3.3180   -3.3097    0.6481 N.pl3     1 <0>        -0.8073
     27 N3          2.2434   -4.3363   -1.2124 N.pl3     1 <0>        -0.8060
     28 C19         0.5936   -2.0303   -1.3337 C.3       1 <0>         0.1017
     29 C20         0.6062   -0.4985   -1.3143 C.3       1 <0>        -0.1325
     30 H1         -1.5028    5.9172    4.6488 H         1 <0>         0.0858
     31 H2         -2.6895    6.7303    3.6005 H         1 <0>         0.0789
     32 H3         -3.0008    5.0770    4.1816 H         1 <0>         0.0780
     33 H4         -1.8436    3.1803    3.2095 H         1 <0>         0.1457
     34 H5          0.2408    3.7895   -0.4707 H         1 <0>         0.1406
     35 H6         -1.0972    7.1408    1.8181 H         1 <0>         0.1469
     36 H7          2.5305    4.5756    1.4333 H         1 <0>         0.1489
     37 H8          3.9269    2.6370    0.8395 H         1 <0>         0.1381
     38 H9          4.7870    2.3948   -1.4550 H         1 <0>         0.1399
     39 H10         4.2450    4.0878   -3.1583 H         1 <0>         0.1470
     40 H11         1.0039    1.9031    0.0027 H         1 <0>         0.0679
     41 H12        -0.5459    1.8868   -0.8726 H         1 <0>         0.0722
     42 H13        -1.0159   -0.3816    0.0988 H         1 <0>         0.0979
     43 H14         1.8706   -0.1524    1.0651 H         1 <0>         0.0778
     44 H15         0.4290   -0.1371    2.1100 H         1 <0>         0.1074
     45 H16        -0.1736   -2.3986    1.3826 H         1 <0>         0.1100
     46 H17         1.5148   -2.4062    1.9541 H         1 <0>         0.0986
     47 H18         3.3313   -2.6311    1.3411 H         1 <0>         0.4372
     48 H19         4.0494   -3.9425    0.5749 H         1 <0>         0.4361
     49 H20         1.4986   -4.3821   -1.8322 H         1 <0>         0.4381
     50 H21         2.9749   -4.9692   -1.2857 H         1 <0>         0.4363
     51 H22        -0.4363   -2.3872   -1.3394 H         1 <0>         0.1058
     52 H23         1.1116   -2.3887   -2.2232 H         1 <0>         0.1016
     53 H24         0.0179   -0.1192   -2.1498 H         1 <0>         0.1033
     54 H25         1.6325   -0.1416   -1.4003 H         1 <0>         0.0815
@<TRIPOS>BOND
     1    1    2 1
     2    1   30 1
     3    1   31 1
     4    1   32 1
     5    2    7 ar
     6    2    3 ar
     7    3    4 ar
     8    3   33 1
     9    4    5 ar
    10    4   19 1
    11    5    6 ar
    12    5   34 1
    13    6    7 ar
    14    6    8 1
    15    7   35 1
    16    8    9 1
    17    9   10 2
    18    9   11 2
    19    9   12 1
    20   12   17 ar
    21   12   13 ar
    22   13   14 ar
    23   13   36 1
    24   14   15 ar
    25   14   37 1
    26   15   16 ar
    27   15   38 1
    28   16   17 ar
    29   16   39 1
    30   17   18 1
    31   19   20 1
    32   20   21 1
    33   20   40 1
    34   20   41 1
    35   21   29 1
    36   21   22 1
    37   21   42 1
    38   22   23 1
    39   22   43 1
    40   22   44 1
    41   23   24 1
    42   23   45 1
    43   23   46 1
    44   24   25 2
    45   24   28 1
    46   25   26 1
    47   25   27 1
    48   26   47 1
    49   26   48 1
    50   27   49 1
    51   27   50 1
    52   28   29 1
    53   28   51 1
    54   28   52 1
    55   29   53 1
    56   29   54 1
@<TRIPOS>MOLECULE
ZINC04617937
   34    36     0     0     0
SMALL
USER_CHARGES

@<TRIPOS>ATOM
      1 C1          1.1821    1.7711    0.0003 C.2       1 <0>        -0.2247
      2 C2          1.1638    3.1558    0.0079 C.2       1 <0>         0.0776
      3 C3         -0.0751    3.8034    0.0232 C.2       1 <0>        -0.1888
      4 C4         -1.2433    3.0278    0.0298 C.2       1 <0>         0.4661
      5 N1         -1.1707    1.7084    0.0161 N.am      1 <0>        -0.5253
      6 C5         -0.0126    1.0758    0.0071 C.2       1 <0>         0.1829
      7 O1         -2.4548    3.6354    0.0445 O.2       1 <0>        -0.6351
      8 C6         -0.1521    5.2788    0.0323 C.2       1 <0>         0.4204
      9 N2         -1.3115    6.0068    0.0474 N.pl3     1 <0>        -0.5704
     10 H1         -2.2421    5.6407    0.0538 H         1 <0>         0.4544
     11 C7         -0.9555    7.3418    0.0522 C.ar      1 <0>         0.0426
     12 C8         -1.6727    8.5299    0.0666 C.ar      1 <0>        -0.0595
     13 C9         -1.0006    9.7342    0.0684 C.ar      1 <0>        -0.2192
     14 C10         0.3867    9.7656    0.0559 C.ar      1 <0>        -0.1237
     15 C11         1.1099    8.6068    0.0411 C.ar      1 <0>        -0.0293
     16 C12         0.4502    7.3735    0.0395 C.ar      1 <0>         0.1100
     17 N3          0.8796    6.0879    0.0330 N.2       1 <0>        -0.4942
     18 C13        -1.7781   11.0250    0.0835 C.3       1 <0>         0.2582
     19 H2          2.1218    1.2390   -0.0109 H         1 <0>         0.1748
     20 H3          2.0838    3.7214    0.0022 H         1 <0>         0.1658
     21 H4          0.0021   -0.0041    0.0051 H         1 <0>         0.1953
     22 H5         -2.0164    1.1748    0.0126 H         1 <0>         0.4451
     23 H6         -2.7525    8.5115    0.0760 H         1 <0>         0.1294
     24 H7          0.8998   10.7159    0.0574 H         1 <0>         0.1337
     25 H8          2.1892    8.6429    0.0315 H         1 <0>         0.1560
     26 H9         -1.9565   11.3296    1.1148 H         1 <0>         0.2185
     27 H10        -1.5101   12.9439   -0.6125 H         1 <0>         0.4538
     28 H11        -0.0944   12.1758   -0.1980 H         1 <0>         0.4738
     29 H12        -2.9258   10.5469   -1.5575 H         1 <0>         0.4527
     30 H13        -3.6386   10.1637   -0.1045 H         1 <0>         0.4728
     31 N4         -1.0083   12.0576   -0.6323 N.4       1 <0>        -0.6606
     32 H14        -0.8801   11.7669   -1.6086 H         1 <0>         0.4548
     33 N5         -3.0737   10.8534   -0.5973 N.4       1 <0>        -0.6640
     34 H15        -3.5723   11.7509   -0.6052 H         1 <0>         0.4562
@<TRIPOS>BOND
     1    1   19 1
     2    1    2 1
     3    1    6 2
     4    2   20 1
     5    2    3 2
     6    3    8 1
     7    3    4 1
     8    4    5 am
     9    4    7 2
    10    5   22 1
    11    5    6 1
    12    6   21 1
    13    8   17 2
    14    8    9 1
    15    9   10 1
    16    9   11 1
    17   11   16 ar
    18   11   12 ar
    19   12   13 ar
    20   12   23 1
    21   13   14 ar
    22   13   18 1
    23   14   15 ar
    24   14   24 1
    25   15   16 ar
    26   15   25 1
    27   16   17 1
    28   18   26 1
    29   18   31 1
    30   18   33 1
    31   27   31 1
    32   28   31 1
    33   29   33 1
    34   30   33 1
    35   31   32 1
    36   33   34 1
@<TRIPOS>MOLECULE
ZINC04617937
   34    36     0     0     0
SMALL
USER_CHARGES

@<TRIPOS>ATOM
      1 C1          1.1821    1.7711    0.0002 C.ar      1 <0>        -0.2016
      2 C2          1.1638    3.1558    0.0079 C.ar      1 <0>         0.0277
      3 C3         -0.0751    3.8034    0.0232 C.ar      1 <0>        -0.2029
      4 C4         -1.2433    3.0278    0.0298 C.ar      1 <0>         0.3653
      5 N1         -1.1707    1.7084    0.0161 N.ar      1 <0>        -0.4915
      6 C5         -0.0126    1.0758    0.0070 C.ar      1 <0>         0.1909
      7 O1         -2.4547    3.6354    0.0504 O.3       1 <0>        -0.4402
      8 C6         -0.1521    5.2788    0.0323 C.2       1 <0>         0.4047
      9 N2         -1.3115    6.0068    0.0474 N.pl3     1 <0>        -0.6052
     10 H1         -2.2421    5.6407    0.0538 H         1 <0>         0.4338
     11 C7         -0.9555    7.3418    0.0522 C.ar      1 <0>         0.0514
     12 C8         -1.6727    8.5299    0.0666 C.ar      1 <0>        -0.0622
     13 C9         -1.0006    9.7342    0.0684 C.ar      1 <0>        -0.2100
     14 C10         0.3867    9.7656    0.0559 C.ar      1 <0>        -0.1161
     15 C11         1.1099    8.6068    0.0411 C.ar      1 <0>        -0.0254
     16 C12         0.4502    7.3735    0.0395 C.ar      1 <0>         0.1160
     17 N3          0.8796    6.0879    0.0330 N.2       1 <0>        -0.4702
     18 C13        -1.7781   11.0250    0.0835 C.3       1 <0>         0.2570
     19 H2          2.1218    1.2390   -0.0110 H         1 <0>         0.1623
     20 H3          2.0838    3.7214    0.0021 H         1 <0>         0.1611
     21 H4          0.0021   -0.0041    0.0049 H         1 <0>         0.1859
     22 H5         -2.3299    4.6275    0.0585 H         1 <0>         0.3687
     23 H6         -2.7525    8.5115    0.0760 H         1 <0>         0.1341
     24 H7          0.8998   10.7159    0.0574 H         1 <0>         0.1386
     25 H8          2.1892    8.6429    0.0315 H         1 <0>         0.1612
     26 H9         -1.9565   11.3296    1.1148 H         1 <0>         0.2209
     27 H10        -1.5101   12.9439   -0.6125 H         1 <0>         0.4559
     28 H11        -0.0944   12.1758   -0.1980 H         1 <0>         0.4745
     29 H12        -2.9258   10.5469   -1.5575 H         1 <0>         0.4533
     30 H13        -3.6386   10.1637   -0.1045 H         1 <0>         0.4728
     31 N4         -1.0083   12.0576   -0.6323 N.4       1 <0>        -0.6608
     32 H14        -0.8801   11.7669   -1.6086 H         1 <0>         0.4556
     33 N5         -3.0737   10.8534   -0.5973 N.4       1 <0>        -0.6639
     34 H15        -3.5723   11.7509   -0.6052 H         1 <0>         0.4584
@<TRIPOS>BOND
     1    1   19 1
     2    1    2 ar
     3    1    6 ar
     4    2   20 1
     5    2    3 ar
     6    3    8 1
     7    3    4 ar
     8    4    5 ar
     9    4    7 1
    10    5    6 ar
    11    6   21 1
    12    7   22 1
    13    8   17 2
    14    8    9 1
    15    9   10 1
    16    9   11 1
    17   11   16 ar
    18   11   12 ar
    19   12   13 ar
    20   12   23 1
    21   13   14 ar
    22   13   18 1
    23   14   15 ar
    24   14   24 1
    25   15   16 ar
    26   15   25 1
    27   16   17 1
    28   18   26 1
    29   18   31 1
    30   18   33 1
    31   27   31 1
    32   28   31 1
    33   29   33 1
    34   30   33 1
    35   31   32 1
    36   33   34 1
@<TRIPOS>MOLECULE
ZINC04617937
   35    37     0     0     0
SMALL
USER_CHARGES

@<TRIPOS>ATOM
      1 C1          1.1821    1.7711    0.0003 C.2       1 <0>        -0.2223
      2 C2          1.1638    3.1558    0.0079 C.2       1 <0>         0.0876
      3 C3         -0.0751    3.8034    0.0232 C.2       1 <0>        -0.2549
      4 C4         -1.2433    3.0278    0.0298 C.2       1 <0>         0.4848
      5 N1         -1.1707    1.7084    0.0161 N.am      1 <0>        -0.5197
      6 C5         -0.0126    1.0758    0.0071 C.2       1 <0>         0.2486
      7 O1         -2.4548    3.6354    0.0445 O.2       1 <0>        -0.6069
      8 C6         -0.1521    5.2788    0.0323 C.cat     1 <0>         0.5327
      9 N2         -1.3115    6.0068    0.0474 N.pl3     1 <0>        -0.5260
     10 H1         -2.2421    5.6407    0.0538 H         1 <0>         0.4848
     11 C7         -0.9555    7.3418    0.0522 C.ar      1 <0>         0.0941
     12 C8         -1.6727    8.5299    0.0666 C.ar      1 <0>        -0.0530
     13 C9         -1.0006    9.7342    0.0684 C.ar      1 <0>        -0.1728
     14 C10         0.3867    9.7656    0.0559 C.ar      1 <0>        -0.0851
     15 C11         1.1099    8.6068    0.0411 C.ar      1 <0>        -0.0362
     16 C12         0.4502    7.3735    0.0395 C.ar      1 <0>         0.1075
     17 C13        -1.7781   11.0250    0.0835 C.3       1 <0>         0.2512
     18 H2          2.1218    1.2390   -0.0109 H         1 <0>         0.1912
     19 H3          2.0838    3.7214    0.0022 H         1 <0>         0.1625
     20 H4          0.0021   -0.0041    0.0051 H         1 <0>         0.2139
     21 H5         -2.0164    1.1748    0.0125 H         1 <0>         0.4599
     22 H6         -2.7525    8.5115    0.0760 H         1 <0>         0.1577
     23 H7          0.8998   10.7159    0.0574 H         1 <0>         0.1589
     24 H8          2.1892    8.6429    0.0315 H         1 <0>         0.1782
     25 H9         -1.9565   11.3296    1.1148 H         1 <0>         0.2307
     26 H10        -1.5101   12.9439   -0.6125 H         1 <0>         0.4646
     27 H11        -0.0944   12.1758   -0.1980 H         1 <0>         0.4759
     28 H12        -2.9258   10.5469   -1.5575 H         1 <0>         0.4556
     29 H13        -3.6386   10.1637   -0.1045 H         1 <0>         0.4753
     30 N3         -1.0083   12.0576   -0.6323 N.4       1 <0>        -0.6613
     31 H14        -0.8801   11.7669   -1.6086 H         1 <0>         0.4578
     32 N4         -3.0737   10.8534   -0.5973 N.4       1 <0>        -0.6643
     33 H15        -3.5723   11.7509   -0.6052 H         1 <0>         0.4669
     34 N5          0.8806    6.0876    0.0330 N.pl3     1 <0>        -0.5240
     35 H16         1.8640    5.7923    0.0292 H         1 <0>         0.4860
@<TRIPOS>BOND
     1    1   18 1
     2    1    2 1
     3    1    6 2
     4    2   19 1
     5    2    3 2
     6    3    8 1
     7    3    4 1
     8    4    5 am
     9    4    7 2
    10    5   21 1
    11    5    6 1
    12    6   20 1
    13    8    9 1
    14    8   34 2
    15    9   10 1
    16    9   11 1
    17   11   16 ar
    18   11   12 ar
    19   12   13 ar
    20   12   22 1
    21   13   14 ar
    22   13   17 1
    23   14   15 ar
    24   14   23 1
    25   15   16 ar
    26   15   24 1
    27   16   34 1
    28   17   25 1
    29   17   30 1
    30   17   32 1
    31   26   30 1
    32   27   30 1
    33   28   32 1
    34   29   32 1
    35   30   31 1
    36   32   33 1
    37   34   35 1
@<TRIPOS>MOLECULE
ZINC04617938
   35    37     0     0     0
SMALL
USER_CHARGES

@<TRIPOS>ATOM
      1 C1         -9.8048   -1.5369   -2.9870 C.ar      1 <0>        -0.1238
      2 C2         -9.8831   -1.4875   -4.3685 C.ar      1 <0>        -0.0597
      3 C3         -8.7997   -1.0655   -5.1146 C.ar      1 <0>        -0.1459
      4 C4         -7.6276   -0.6820   -4.4820 C.ar      1 <0>         0.1719
      5 C5         -7.5427   -0.7356   -3.0853 C.ar      1 <0>        -0.1052
      6 C6         -8.6440   -1.1642   -2.3427 C.ar      1 <0>        -0.0752
      7 C7         -6.2960   -0.3349   -2.4010 C.2       1 <0>         0.3942
      8 N1         -6.1042   -0.3426   -1.0454 N.pl3     1 <0>        -0.5891
      9 H1         -6.7720   -0.6160   -0.3531 H         1 <0>         0.4458
     10 C8         -4.8155    0.0979   -0.8126 C.ar      1 <0>         0.0798
     11 C9         -4.0588    0.3002    0.3331 C.ar      1 <0>        -0.0543
     12 C10        -2.7637    0.7615    0.2244 C.ar      1 <0>        -0.1195
     13 C11        -2.2127    1.0239   -1.0219 C.ar      1 <0>        -0.2152
     14 C12        -2.9436    0.8362   -2.1605 C.ar      1 <0>        -0.0351
     15 C13        -4.2575    0.3642   -2.0755 C.ar      1 <0>         0.0721
     16 N2         -5.2069    0.0814   -3.0006 N.2       1 <0>        -0.4658
     17 C14        -0.7955    1.5269   -1.1198 C.3       1 <0>         0.2523
     18 O1         -6.5643   -0.2609   -5.2138 O.3       1 <0>        -0.4753
     19 H2        -10.6565   -1.8685   -2.4116 H         1 <0>         0.1425
     20 H3        -10.7960   -1.7808   -4.8655 H         1 <0>         0.1439
     21 H4         -8.8677   -1.0302   -6.1919 H         1 <0>         0.1464
     22 H5         -8.5870   -1.2042   -1.2649 H         1 <0>         0.1267
     23 H6         -4.4823    0.0970    1.3056 H         1 <0>         0.1508
     24 H7         -2.1741    0.9192    1.1154 H         1 <0>         0.1357
     25 H8         -2.5063    1.0481   -3.1250 H         1 <0>         0.1372
     26 H9         -0.7938    2.6165   -1.0898 H         1 <0>         0.2173
     27 H10         0.0021   -0.0041    0.0020 H         1 <0>         0.4530
     28 H11         0.9253    1.3792    0.0006 H         1 <0>         0.4556
     29 H12         0.7510    1.3955   -2.4724 H         1 <0>         0.4549
     30 H13        -0.2485    0.0662   -2.4635 H         1 <0>         0.4537
     31 H14        -5.9615   -0.9702   -5.4756 H         1 <0>         0.3953
     32 N3         -0.0252    1.0139    0.0269 N.4       1 <0>        -0.6575
     33 H15        -0.4761    1.3157    0.8986 H         1 <0>         0.4753
     34 N4         -0.2156    1.0823   -2.3994 N.4       1 <0>        -0.6598
     35 H16        -0.7574    1.4845   -3.1734 H         1 <0>         0.4769
@<TRIPOS>BOND
     1    1    6 ar
     2    1    2 ar
     3    1   19 1
     4    2    3 ar
     5    2   20 1
     6    3    4 ar
     7    3   21 1
     8    4    5 ar
     9    4   18 1
    10    5    6 ar
    11    5    7 1
    12    6   22 1
    13    7   16 2
    14    7    8 1
    15    8    9 1
    16    8   10 1
    17   10   15 ar
    18   10   11 ar
    19   11   12 ar
    20   11   23 1
    21   12   13 ar
    22   12   24 1
    23   13   14 ar
    24   13   17 1
    25   14   15 ar
    26   14   25 1
    27   15   16 1
    28   17   26 1
    29   17   32 1
    30   17   34 1
    31   18   31 1
    32   27   32 1
    33   28   32 1
    34   29   34 1
    35   30   34 1
    36   32   33 1
    37   34   35 1
@<TRIPOS>MOLECULE
ZINC04617938
   35    37     0     0     0
SMALL
USER_CHARGES

@<TRIPOS>ATOM
      1 C1         -9.8048   -1.5369   -2.9870 C.ar      1 <0>        -0.1238
      2 C2         -9.8831   -1.4875   -4.3685 C.ar      1 <0>        -0.0597
      3 C3         -8.7997   -1.0655   -5.1146 C.ar      1 <0>        -0.1459
      4 C4         -7.6276   -0.6820   -4.4820 C.ar      1 <0>         0.1719
      5 C5         -7.5427   -0.7356   -3.0853 C.ar      1 <0>        -0.1052
      6 C6         -8.6440   -1.1642   -2.3427 C.ar      1 <0>        -0.0752
      7 C7         -6.2960   -0.3349   -2.4010 C.2       1 <0>         0.3942
      8 N1         -6.1042   -0.3426   -1.0454 N.pl3     1 <0>        -0.5891
      9 H1         -6.7720   -0.6160   -0.3531 H         1 <0>         0.4458
     10 C8         -4.8155    0.0979   -0.8126 C.ar      1 <0>         0.0798
     11 C9         -4.0588    0.3002    0.3331 C.ar      1 <0>        -0.0543
     12 C10        -2.7637    0.7615    0.2244 C.ar      1 <0>        -0.1195
     13 C11        -2.2127    1.0239   -1.0219 C.ar      1 <0>        -0.2152
     14 C12        -2.9436    0.8362   -2.1605 C.ar      1 <0>        -0.0351
     15 C13        -4.2575    0.3642   -2.0755 C.ar      1 <0>         0.0721
     16 N2         -5.2069    0.0814   -3.0006 N.2       1 <0>        -0.4658
     17 C14        -0.7955    1.5269   -1.1198 C.3       1 <0>         0.2523
     18 O1         -6.5643   -0.2609   -5.2138 O.3       1 <0>        -0.4753
     19 H2        -10.6565   -1.8685   -2.4116 H         1 <0>         0.1425
     20 H3        -10.7960   -1.7808   -4.8655 H         1 <0>         0.1439
     21 H4         -8.8677   -1.0302   -6.1919 H         1 <0>         0.1464
     22 H5         -8.5870   -1.2042   -1.2649 H         1 <0>         0.1267
     23 H6         -4.4823    0.0970    1.3056 H         1 <0>         0.1508
     24 H7         -2.1741    0.9192    1.1154 H         1 <0>         0.1357
     25 H8         -2.5063    1.0481   -3.1250 H         1 <0>         0.1372
     26 H9         -0.7938    2.6165   -1.0898 H         1 <0>         0.2173
     27 H10         0.0021   -0.0041    0.0020 H         1 <0>         0.4530
     28 H11         0.9253    1.3792    0.0006 H         1 <0>         0.4556
     29 H12         0.7510    1.3955   -2.4724 H         1 <0>         0.4549
     30 H13        -0.2485    0.0662   -2.4635 H         1 <0>         0.4537
     31 H14        -5.9615   -0.9702   -5.4756 H         1 <0>         0.3953
     32 N3         -0.0252    1.0139    0.0269 N.4       1 <0>        -0.6575
     33 H15        -0.4761    1.3157    0.8986 H         1 <0>         0.4753
     34 N4         -0.2156    1.0823   -2.3994 N.4       1 <0>        -0.6598
     35 H16        -0.7574    1.4845   -3.1734 H         1 <0>         0.4769
@<TRIPOS>BOND
     1    1    6 ar
     2    1    2 ar
     3    1   19 1
     4    2    3 ar
     5    2   20 1
     6    3    4 ar
     7    3   21 1
     8    4    5 ar
     9    4   18 1
    10    5    6 ar
    11    5    7 1
    12    6   22 1
    13    7   16 2
    14    7    8 1
    15    8    9 1
    16    8   10 1
    17   10   15 ar
    18   10   11 ar
    19   11   12 ar
    20   11   23 1
    21   12   13 ar
    22   12   24 1
    23   13   14 ar
    24   13   17 1
    25   14   15 ar
    26   14   25 1
    27   15   16 1
    28   17   26 1
    29   17   32 1
    30   17   34 1
    31   18   31 1
    32   27   32 1
    33   28   32 1
    34   29   34 1
    35   30   34 1
    36   32   33 1
    37   34   35 1
@<TRIPOS>MOLECULE
ZINC04617939
   34    36     0     0     0
SMALL
USER_CHARGES

@<TRIPOS>ATOM
      1 C1         -0.0126    1.0758    0.0080 C.ar      1 <0>        -0.1115
      2 C2          1.1745    1.7906    0.0005 C.ar      1 <0>        -0.1020
      3 C3          1.1117    3.1795    0.0086 C.ar      1 <0>         0.1326
      4 C4         -0.1426    3.8006    0.0239 C.ar      1 <0>         0.1044
      5 N1         -1.2533    3.0730    0.0306 N.ar      1 <0>        -0.4578
      6 C5         -1.2177    1.7575    0.0173 C.ar      1 <0>         0.1016
      7 C6         -0.2312    5.2762    0.0332 C.2       1 <0>         0.4043
      8 N2         -1.3964    5.9951    0.0428 N.pl3     1 <0>        -0.5765
      9 H1         -2.3241    5.6217    0.0430 H         1 <0>         0.4494
     10 C7         -1.0512    7.3319    0.0522 C.ar      1 <0>         0.0495
     11 C8         -1.7777    8.5148    0.0656 C.ar      1 <0>        -0.0638
     12 C9         -1.1150    9.7239    0.0658 C.ar      1 <0>        -0.2125
     13 C10         0.2723    9.7661    0.0522 C.ar      1 <0>        -0.1249
     14 C11         1.0046    8.6134    0.0395 C.ar      1 <0>        -0.0203
     15 C12         0.3546    7.3745    0.0390 C.ar      1 <0>         0.1041
     16 N3          0.7937    6.0931    0.0278 N.2       1 <0>        -0.4547
     17 C13        -1.9025   11.0086    0.0802 C.3       1 <0>         0.2557
     18 O1          2.2488    3.9214    0.0013 O.3       1 <0>        -0.4666
     19 H2          0.0021   -0.0041    0.0020 H         1 <0>         0.1580
     20 H3          2.1264    1.2806   -0.0111 H         1 <0>         0.1600
     21 H4         -2.1432    1.2008    0.0183 H         1 <0>         0.1774
     22 H5         -2.8573    8.4881    0.0754 H         1 <0>         0.1308
     23 H6          0.7779   10.7205    0.0522 H         1 <0>         0.1362
     24 H7          2.0836    8.6582    0.0297 H         1 <0>         0.1589
     25 H8         -2.0825   11.3129    1.1113 H         1 <0>         0.2201
     26 H9         -1.6498   12.9289   -0.6178 H         1 <0>         0.4555
     27 H10        -0.2279   12.1722   -0.2035 H         1 <0>         0.4745
     28 H11        -3.7613   11.6314   -0.5487 H         1 <0>         0.4562
     29 H12        -3.0475   10.5201   -1.5595 H         1 <0>         0.4523
     30 H13         2.5694    4.1411   -0.8842 H         1 <0>         0.4017
     31 N4         -1.1411   12.0465   -0.6371 N.4       1 <0>        -0.6578
     32 H14        -1.0113   11.7559   -1.6132 H         1 <0>         0.4549
     33 N5         -3.1970   10.7841   -0.5870 N.4       1 <0>        -0.6631
     34 H15        -3.6971   10.0266   -0.1073 H         1 <0>         0.4734
@<TRIPOS>BOND
     1    1    6 ar
     2    1    2 ar
     3    1   19 1
     4    2    3 ar
     5    2   20 1
     6    3    4 ar
     7    3   18 1
     8    4    5 ar
     9    4    7 1
    10    5    6 ar
    11    6   21 1
    12    7   16 2
    13    7    8 1
    14    8    9 1
    15    8   10 1
    16   10   15 ar
    17   10   11 ar
    18   11   12 ar
    19   11   22 1
    20   12   13 ar
    21   12   17 1
    22   13   14 ar
    23   13   23 1
    24   14   15 ar
    25   14   24 1
    26   15   16 1
    27   17   25 1
    28   17   31 1
    29   17   33 1
    30   18   30 1
    31   26   31 1
    32   27   31 1
    33   28   33 1
    34   29   33 1
    35   31   32 1
    36   33   34 1
@<TRIPOS>MOLECULE
ZINC04617939
   34    36     0     0     0
SMALL
USER_CHARGES

@<TRIPOS>ATOM
      1 C1         -0.0126    1.0758    0.0080 C.ar      1 <0>        -0.1115
      2 C2          1.1745    1.7906    0.0005 C.ar      1 <0>        -0.1020
      3 C3          1.1117    3.1795    0.0086 C.ar      1 <0>         0.1326
      4 C4         -0.1426    3.8006    0.0239 C.ar      1 <0>         0.1044
      5 N1         -1.2533    3.0730    0.0306 N.ar      1 <0>        -0.4578
      6 C5         -1.2177    1.7575    0.0173 C.ar      1 <0>         0.1016
      7 C6         -0.2312    5.2762    0.0332 C.2       1 <0>         0.4043
      8 N2         -1.3964    5.9951    0.0428 N.pl3     1 <0>        -0.5765
      9 H1         -2.3241    5.6217    0.0430 H         1 <0>         0.4494
     10 C7         -1.0512    7.3319    0.0522 C.ar      1 <0>         0.0495
     11 C8         -1.7777    8.5148    0.0656 C.ar      1 <0>        -0.0638
     12 C9         -1.1150    9.7239    0.0658 C.ar      1 <0>        -0.2125
     13 C10         0.2723    9.7661    0.0522 C.ar      1 <0>        -0.1249
     14 C11         1.0046    8.6134    0.0395 C.ar      1 <0>        -0.0203
     15 C12         0.3546    7.3745    0.0390 C.ar      1 <0>         0.1041
     16 N3          0.7937    6.0931    0.0278 N.2       1 <0>        -0.4547
     17 C13        -1.9025   11.0086    0.0802 C.3       1 <0>         0.2557
     18 O1          2.2488    3.9214    0.0013 O.3       1 <0>        -0.4666
     19 H2          0.0021   -0.0041    0.0020 H         1 <0>         0.1580
     20 H3          2.1264    1.2806   -0.0111 H         1 <0>         0.1600
     21 H4         -2.1432    1.2008    0.0183 H         1 <0>         0.1774
     22 H5         -2.8573    8.4881    0.0754 H         1 <0>         0.1308
     23 H6          0.7779   10.7205    0.0522 H         1 <0>         0.1362
     24 H7          2.0836    8.6582    0.0297 H         1 <0>         0.1589
     25 H8         -2.0825   11.3129    1.1113 H         1 <0>         0.2201
     26 H9         -1.6498   12.9289   -0.6178 H         1 <0>         0.4555
     27 H10        -0.2279   12.1722   -0.2035 H         1 <0>         0.4745
     28 H11        -3.7613   11.6314   -0.5487 H         1 <0>         0.4562
     29 H12        -3.0475   10.5201   -1.5595 H         1 <0>         0.4523
     30 H13         2.5694    4.1411   -0.8842 H         1 <0>         0.4017
     31 N4         -1.1411   12.0465   -0.6371 N.4       1 <0>        -0.6578
     32 H14        -1.0113   11.7559   -1.6132 H         1 <0>         0.4549
     33 N5         -3.1970   10.7841   -0.5870 N.4       1 <0>        -0.6631
     34 H15        -3.6971   10.0266   -0.1073 H         1 <0>         0.4734
@<TRIPOS>BOND
     1    1    6 ar
     2    1    2 ar
     3    1   19 1
     4    2    3 ar
     5    2   20 1
     6    3    4 ar
     7    3   18 1
     8    4    5 ar
     9    4    7 1
    10    5    6 ar
    11    6   21 1
    12    7   16 2
    13    7    8 1
    14    8    9 1
    15    8   10 1
    16   10   15 ar
    17   10   11 ar
    18   11   12 ar
    19   11   22 1
    20   12   13 ar
    21   12   17 1
    22   13   14 ar
    23   13   23 1
    24   14   15 ar
    25   14   24 1
    26   15   16 1
    27   17   25 1
    28   17   31 1
    29   17   33 1
    30   18   30 1
    31   26   31 1
    32   27   31 1
    33   28   33 1
    34   29   33 1
    35   31   32 1
    36   33   34 1
@<TRIPOS>MOLECULE
ZINC04617940
   45    48     0     0     0
SMALL
USER_CHARGES

@<TRIPOS>ATOM
      1 C1          2.3775    1.4178   -0.0135 C.ar      1 <0>        -0.1069
      2 C2          1.1704    2.0931    0.0021 C.ar      1 <0>        -0.1142
      3 C3         -0.0168    1.3894    0.0097 C.ar      1 <0>        -0.1014
      4 C4          0.0021   -0.0041    0.0020 C.ar      1 <0>        -0.0579
      5 C5          1.2212   -0.6791   -0.0132 C.ar      1 <0>        -0.0981
      6 C6          2.4023    0.0348   -0.0207 C.ar      1 <0>        -0.1160
      7 C7         -1.2707   -0.7659    0.0106 C.ar      1 <0>        -0.0638
      8 C8         -2.2586   -0.4646    0.9455 C.ar      1 <0>        -0.0523
      9 C9         -3.4453   -1.1723    0.9563 C.ar      1 <0>        -0.1213
     10 C10        -3.6643   -2.1831    0.0422 C.ar      1 <0>        -0.0767
     11 C11        -2.6861   -2.4990   -0.9018 C.ar      1 <0>        -0.1040
     12 C12        -1.4840   -1.7833   -0.9224 C.ar      1 <0>         0.1863
     13 O1         -0.5290   -2.0792   -1.8399 O.3       1 <0>        -0.4647
     14 C13        -2.9217   -3.5809   -1.8802 C.2       1 <0>         0.4033
     15 N1         -4.0584   -4.3402   -1.9562 N.pl3     1 <0>        -0.5955
     16 H1         -4.8641   -4.2628   -1.3690 H         1 <0>         0.4411
     17 C14        -3.8843   -5.2334   -2.9958 C.ar      1 <0>         0.0476
     18 C15        -4.6704   -6.2361   -3.5462 C.ar      1 <0>        -0.0648
     19 C16        -4.1941   -6.9710   -4.6115 C.ar      1 <0>        -0.2150
     20 C17        -2.9351   -6.7149   -5.1359 C.ar      1 <0>        -0.1205
     21 C18        -2.1466   -5.7326   -4.6074 C.ar      1 <0>        -0.0272
     22 C19        -2.6087   -4.9736   -3.5273 C.ar      1 <0>         0.1092
     23 N2         -2.0760   -3.9543   -2.8099 N.2       1 <0>        -0.4624
     24 C20        -5.0467   -8.0600   -5.2101 C.3       1 <0>         0.2576
     25 H2          3.3042    1.9725   -0.0194 H         1 <0>         0.1282
     26 H3          1.1570    3.1730    0.0081 H         1 <0>         0.1296
     27 H4         -0.9588    1.9177    0.0170 H         1 <0>         0.1248
     28 H5          1.2417   -1.7589   -0.0189 H         1 <0>         0.1156
     29 H6          3.3476   -0.4873   -0.0325 H         1 <0>         0.1277
     30 H7         -2.0961    0.3246    1.6646 H         1 <0>         0.1441
     31 H8         -4.2063   -0.9328    1.6843 H         1 <0>         0.1439
     32 H9         -4.5948   -2.7312    0.0578 H         1 <0>         0.1253
     33 H10         0.1023   -2.7509   -1.5479 H         1 <0>         0.3951
     34 H11        -5.6508   -6.4402   -3.1417 H         1 <0>         0.1295
     35 H12        -2.5747   -7.2985   -5.9702 H         1 <0>         0.1354
     36 H13        -1.1684   -5.5418   -5.0234 H         1 <0>         0.1574
     37 H14        -5.6625   -7.6427   -6.0068 H         1 <0>         0.2192
     38 H15        -3.6220   -8.7592   -6.5215 H         1 <0>         0.4752
     39 H16        -3.6005   -9.5153   -5.0404 H         1 <0>         0.4534
     40 H17        -6.4717   -7.9151   -3.7314 H         1 <0>         0.4712
     41 H18        -6.4946   -9.3645   -4.5467 H         1 <0>         0.4551
     42 N3         -4.1994   -9.1287   -5.7680 N.4       1 <0>        -0.6608
     43 H19        -4.7986   -9.8748   -6.1402 H         1 <0>         0.4567
     44 N4         -5.8949   -8.6405   -4.1543 N.4       1 <0>        -0.6636
     45 H20        -5.2964   -9.0567   -3.4313 H         1 <0>         0.4545
@<TRIPOS>BOND
     1    1    6 ar
     2    1    2 ar
     3    1   25 1
     4    2    3 ar
     5    2   26 1
     6    3    4 ar
     7    3   27 1
     8    4    5 ar
     9    4    7 1
    10    5    6 ar
    11    5   28 1
    12    6   29 1
    13    7   12 ar
    14    7    8 ar
    15    8    9 ar
    16    8   30 1
    17    9   10 ar
    18    9   31 1
    19   10   11 ar
    20   10   32 1
    21   11   12 ar
    22   11   14 1
    23   12   13 1
    24   13   33 1
    25   14   23 2
    26   14   15 1
    27   15   16 1
    28   15   17 1
    29   17   22 ar
    30   17   18 ar
    31   18   19 ar
    32   18   34 1
    33   19   20 ar
    34   19   24 1
    35   20   21 ar
    36   20   35 1
    37   21   22 ar
    38   21   36 1
    39   22   23 1
    40   24   37 1
    41   24   42 1
    42   24   44 1
    43   38   42 1
    44   39   42 1
    45   40   44 1
    46   41   44 1
    47   42   43 1
    48   44   45 1
@<TRIPOS>MOLECULE
ZINC04617940
   45    48     0     0     0
SMALL
USER_CHARGES

@<TRIPOS>ATOM
      1 C1          2.3775    1.4178   -0.0135 C.ar      1 <0>        -0.1069
      2 C2          1.1704    2.0931    0.0021 C.ar      1 <0>        -0.1142
      3 C3         -0.0168    1.3894    0.0097 C.ar      1 <0>        -0.1014
      4 C4          0.0021   -0.0041    0.0020 C.ar      1 <0>        -0.0579
      5 C5          1.2212   -0.6791   -0.0132 C.ar      1 <0>        -0.0981
      6 C6          2.4023    0.0348   -0.0207 C.ar      1 <0>        -0.1160
      7 C7         -1.2707   -0.7659    0.0106 C.ar      1 <0>        -0.0638
      8 C8         -2.2586   -0.4646    0.9455 C.ar      1 <0>        -0.0523
      9 C9         -3.4453   -1.1723    0.9563 C.ar      1 <0>        -0.1213
     10 C10        -3.6643   -2.1831    0.0422 C.ar      1 <0>        -0.0767
     11 C11        -2.6861   -2.4990   -0.9018 C.ar      1 <0>        -0.1040
     12 C12        -1.4840   -1.7833   -0.9224 C.ar      1 <0>         0.1863
     13 O1         -0.5290   -2.0792   -1.8399 O.3       1 <0>        -0.4647
     14 C13        -2.9217   -3.5809   -1.8802 C.2       1 <0>         0.4033
     15 N1         -4.0584   -4.3402   -1.9562 N.pl3     1 <0>        -0.5955
     16 H1         -4.8641   -4.2628   -1.3690 H         1 <0>         0.4411
     17 C14        -3.8843   -5.2334   -2.9958 C.ar      1 <0>         0.0476
     18 C15        -4.6704   -6.2361   -3.5462 C.ar      1 <0>        -0.0648
     19 C16        -4.1941   -6.9710   -4.6115 C.ar      1 <0>        -0.2150
     20 C17        -2.9351   -6.7149   -5.1359 C.ar      1 <0>        -0.1205
     21 C18        -2.1466   -5.7326   -4.6074 C.ar      1 <0>        -0.0272
     22 C19        -2.6087   -4.9736   -3.5273 C.ar      1 <0>         0.1092
     23 N2         -2.0760   -3.9543   -2.8099 N.2       1 <0>        -0.4624
     24 C20        -5.0467   -8.0600   -5.2101 C.3       1 <0>         0.2576
     25 H2          3.3042    1.9725   -0.0194 H         1 <0>         0.1282
     26 H3          1.1570    3.1730    0.0081 H         1 <0>         0.1296
     27 H4         -0.9588    1.9177    0.0170 H         1 <0>         0.1248
     28 H5          1.2417   -1.7589   -0.0189 H         1 <0>         0.1156
     29 H6          3.3476   -0.4873   -0.0325 H         1 <0>         0.1277
     30 H7         -2.0961    0.3246    1.6646 H         1 <0>         0.1441
     31 H8         -4.2063   -0.9328    1.6843 H         1 <0>         0.1439
     32 H9         -4.5948   -2.7312    0.0578 H         1 <0>         0.1253
     33 H10         0.1023   -2.7509   -1.5479 H         1 <0>         0.3951
     34 H11        -5.6508   -6.4402   -3.1417 H         1 <0>         0.1295
     35 H12        -2.5747   -7.2985   -5.9702 H         1 <0>         0.1354
     36 H13        -1.1684   -5.5418   -5.0234 H         1 <0>         0.1574
     37 H14        -5.6625   -7.6427   -6.0068 H         1 <0>         0.2192
     38 H15        -3.6220   -8.7592   -6.5215 H         1 <0>         0.4752
     39 H16        -3.6005   -9.5153   -5.0404 H         1 <0>         0.4534
     40 H17        -6.4717   -7.9151   -3.7314 H         1 <0>         0.4712
     41 H18        -6.4946   -9.3645   -4.5467 H         1 <0>         0.4551
     42 N3         -4.1994   -9.1287   -5.7680 N.4       1 <0>        -0.6608
     43 H19        -4.7986   -9.8748   -6.1402 H         1 <0>         0.4567
     44 N4         -5.8949   -8.6405   -4.1543 N.4       1 <0>        -0.6636
     45 H20        -5.2964   -9.0567   -3.4313 H         1 <0>         0.4545
@<TRIPOS>BOND
     1    1    6 ar
     2    1    2 ar
     3    1   25 1
     4    2    3 ar
     5    2   26 1
     6    3    4 ar
     7    3   27 1
     8    4    5 ar
     9    4    7 1
    10    5    6 ar
    11    5   28 1
    12    6   29 1
    13    7   12 ar
    14    7    8 ar
    15    8    9 ar
    16    8   30 1
    17    9   10 ar
    18    9   31 1
    19   10   11 ar
    20   10   32 1
    21   11   12 ar
    22   11   14 1
    23   12   13 1
    24   13   33 1
    25   14   23 2
    26   14   15 1
    27   15   16 1
    28   15   17 1
    29   17   22 ar
    30   17   18 ar
    31   18   19 ar
    32   18   34 1
    33   19   20 ar
    34   19   24 1
    35   20   21 ar
    36   20   35 1
    37   21   22 ar
    38   21   36 1
    39   22   23 1
    40   24   37 1
    41   24   42 1
    42   24   44 1
    43   38   42 1
    44   39   42 1
    45   40   44 1
    46   41   44 1
    47   42   43 1
    48   44   45 1
@<TRIPOS>MOLECULE
ZINC04632542
   76    80     0     0     0
SMALL
USER_CHARGES

@<TRIPOS>ATOM
      1 C1         11.6475   -0.0377    1.8028 C.ar      1 <0>        -0.0970
      2 C2         12.1834   -0.3545    0.5686 C.ar      1 <0>        -0.1072
      3 C3         11.7573    0.3161   -0.5626 C.ar      1 <0>        -0.1501
      4 C4         10.7954    1.3036   -0.4595 C.ar      1 <0>        -0.1241
      5 C5         10.2632    1.6239    0.7754 C.ar      1 <0>        -0.0600
      6 C6         10.6856    0.9496    1.9059 C.ar      1 <0>        -0.1047
      7 C7         10.3311    2.0350   -1.6927 C.3       1 <0>        -0.0870
      8 C8          9.2720    1.1986   -2.4134 C.3       1 <0>         0.0658
      9 C9          8.9141    1.8767   -3.7302 C.3       1 <0>        -0.1440
     10 C10         7.4860    1.5273   -4.1480 C.3       1 <0>         0.0010
     11 N1          6.5549    2.0217   -3.1241 N.3       1 <0>        -0.2738
     12 C11         5.1593    1.6480   -3.4618 C.3       1 <0>         0.0134
     13 C12         4.4666    1.7408   -2.0742 C.3       1 <0>        -0.1186
     14 C13         5.6071    1.2749   -1.1374 C.3       1 <0>         0.1227
     15 H1          5.4670    0.2291   -0.8636 H         1 <0>         0.1287
     16 N2          6.8459    1.4358   -1.9164 N.am      1 <0>        -0.4601
     17 C14         8.0738    1.0527   -1.5225 C.2       1 <0>         0.5101
     18 O1          8.2162    0.5762   -0.4164 O.2       1 <0>        -0.4717
     19 C15         5.6510    2.1355    0.0989 C.2       1 <0>         0.5257
     20 O2          5.0211    1.8140    1.0842 O.2       1 <0>        -0.5124
     21 N3          6.3901    3.2625    0.1097 N.am      1 <0>        -0.7132
     22 C16         6.5233    4.0393    1.3446 C.3       1 <0>         0.1390
     23 H2          6.3802    3.4402    2.1323 H         1 <0>         0.1198
     24 C17         5.4796    5.1580    1.3584 C.3       1 <0>        -0.1241
     25 C18         4.0770    4.5473    1.3350 C.3       1 <0>        -0.1235
     26 C19         3.0348    5.6656    1.2711 C.3       1 <0>         0.0934
     27 N4          1.6920    5.0879    1.3674 N.pl3     1 <0>        -0.6986
     28 C20         0.5859    5.8928    1.2302 C.cat     1 <0>         0.7397
     29 N5         -0.6716    5.3719    1.4240 N.pl3     1 <0>        -0.8057
     30 C21         7.9039    4.6394    1.4141 C.2       1 <0>         0.4542
     31 O3          8.5653    4.7573    0.4046 O.2       1 <0>        -0.4185
     32 C22         8.4492    5.0820    2.7064 C.2       1 <0>         0.0213
     33 N6          7.8888    5.0430    3.8972 N.2       1 <0>        -0.4275
     34 C23         8.5028    5.4778    4.9999 C.ar      1 <0>         0.0506
     35 C24         8.0125    5.4857    6.3318 C.ar      1 <0>        -0.0371
     36 C25         8.7689    5.9739    7.3476 C.ar      1 <0>        -0.1145
     37 C26        10.0447    6.4828    7.1316 C.ar      1 <0>        -0.0543
     38 C27        10.5625    6.4951    5.8520 C.ar      1 <0>        -0.0797
     39 C28         9.8077    6.0038    4.8126 C.ar      1 <0>        -0.1219
     40 S1         10.0395    5.8179    3.0612 S.3       1 <0>         0.0841
     41 H3         11.9807   -0.5615    2.6867 H         1 <0>         0.1315
     42 H4         12.9352   -1.1256    0.4881 H         1 <0>         0.1328
     43 H5         12.1763    0.0690   -1.5268 H         1 <0>         0.1187
     44 H6          9.5149    2.3983    0.8566 H         1 <0>         0.1127
     45 H7         10.2672    1.1974    2.8703 H         1 <0>         0.1241
     46 H8         11.1787    2.1997   -2.3580 H         1 <0>         0.1172
     47 H9          9.9025    2.9952   -1.4058 H         1 <0>         0.1252
     48 H10         8.9996    2.9570   -3.6124 H         1 <0>         0.1333
     49 H11         9.6060    1.5450   -4.5043 H         1 <0>         0.1147
     50 H12         7.2601    1.9984   -5.1047 H         1 <0>         0.1314
     51 H13         7.3869    0.4457   -4.2397 H         1 <0>         0.0588
     52 H14         4.7237    2.3587   -4.1641 H         1 <0>         0.1271
     53 H15         5.1110    0.6327   -3.8554 H         1 <0>         0.0763
     54 H16         4.1704    2.7659   -1.8516 H         1 <0>         0.0962
     55 H17         3.6116    1.0670   -2.0171 H         1 <0>         0.1120
     56 H18         6.8339    3.5592   -0.7003 H         1 <0>         0.4131
     57 H19         5.6004    5.7564    2.2614 H         1 <0>         0.0974
     58 H20         5.6146    5.7917    0.4819 H         1 <0>         0.0837
     59 H21         3.9748    3.9051    0.4602 H         1 <0>         0.0796
     60 H22         3.9223    3.9577    2.2386 H         1 <0>         0.0939
     61 H23         3.1930    6.3574    2.0985 H         1 <0>         0.0957
     62 H24         3.1334    6.2005    0.3264 H         1 <0>         0.0903
     63 H25         1.5833    4.1375    1.5279 H         1 <0>         0.4345
     64 H26         0.0103    7.7980    0.7971 H         1 <0>         0.4528
     65 H27        -0.7759    4.4566    1.7280 H         1 <0>         0.4408
     66 H28        -1.4546    5.9195    1.2564 H         1 <0>         0.4400
     67 H29         7.0259    5.0988    6.5396 H         1 <0>         0.1394
     68 H30         8.3691    5.9665    8.3509 H         1 <0>         0.1447
     69 H31        10.6257    6.8649    7.9580 H         1 <0>         0.1506
     70 H32        11.5521    6.8870    5.6687 H         1 <0>         0.1438
     71 H33        10.0728   -0.6096   -1.8405 H         1 <0>         0.4445
     72 H34         9.1809   -0.6838   -3.2423 H         1 <0>         0.4345
     73 N7          0.7990    7.1609    0.9102 N.pl3     1 <0>        -0.7956
     74 H35         1.7580    7.5024    0.7761 H         1 <0>         0.4543
     75 N8          9.8456   -0.1265   -2.7081 N.4       1 <0>        -0.6366
     76 H36        10.7032   -0.0079   -3.2600 H         1 <0>         0.4469
@<TRIPOS>BOND
     1    1    6 ar
     2    1    2 ar
     3    1   41 1
     4    2    3 ar
     5    2   42 1
     6    3    4 ar
     7    3   43 1
     8    4    5 ar
     9    4    7 1
    10    5    6 ar
    11    5   44 1
    12    6   45 1
    13    7    8 1
    14    7   46 1
    15    7   47 1
    16    8   17 1
    17    8    9 1
    18    8   75 1
    19    9   10 1
    20    9   48 1
    21    9   49 1
    22   10   11 1
    23   10   50 1
    24   10   51 1
    25   11   16 1
    26   11   12 1
    27   12   13 1
    28   12   52 1
    29   12   53 1
    30   13   14 1
    31   13   54 1
    32   13   55 1
    33   14   15 1
    34   14   16 1
    35   14   19 1
    36   16   17 am
    37   17   18 2
    38   19   20 2
    39   19   21 am
    40   21   22 1
    41   21   56 1
    42   22   23 1
    43   22   24 1
    44   22   30 1
    45   24   25 1
    46   24   57 1
    47   24   58 1
    48   25   26 1
    49   25   59 1
    50   25   60 1
    51   26   27 1
    52   26   61 1
    53   26   62 1
    54   27   28 1
    55   27   63 1
    56   28   29 1
    57   28   73 2
    58   29   65 1
    59   29   66 1
    60   30   31 2
    61   30   32 1
    62   32   40 1
    63   32   33 2
    64   33   34 1
    65   34   39 ar
    66   34   35 ar
    67   35   36 ar
    68   35   67 1
    69   36   37 ar
    70   36   68 1
    71   37   38 ar
    72   37   69 1
    73   38   39 ar
    74   38   70 1
    75   39   40 1
    76   64   73 1
    77   71   75 1
    78   72   75 1
    79   73   74 1
    80   75   76 1
