@<TRIPOS>MOLECULE
ZINC00001505
   31    32     0     0     0
SMALL
USER_CHARGES

@<TRIPOS>ATOM
      1 C1          1.3090   -0.3954   -0.0126 C.2       1 <0>         0.2544
      2 N1          2.0855    0.6482   -0.0144 N.2       1 <0>        -0.4256
      3 C2          1.3292    1.7738   -0.0011 C.2       1 <0>        -0.0886
      4 C3         -0.0165    1.3678    0.0096 C.2       1 <0>         0.2901
      5 N2          0.0021   -0.0041    0.0020 N.pl3     1 <0>        -0.4586
      6 C4         -1.1671   -0.8869    0.0084 C.3       1 <0>         0.2913
      7 O1         -0.7354   -2.2491   -0.0030 O.3       1 <0>        -0.3664
      8 C5         -1.8043   -3.1975    0.0021 C.3       1 <0>         0.1004
      9 C6         -2.1995   -3.5283   -1.4385 C.3       1 <0>         0.0559
     10 O2         -1.1125   -4.1872   -2.0913 O.3       1 <0>        -0.5320
     11 C7         -1.3498   -4.4743    0.7122 C.3       1 <0>         0.0830
     12 O3         -0.3017   -5.0899   -0.0392 O.3       1 <0>        -0.5350
     13 N3         -0.9710    2.2916    0.0237 N.2       1 <0>        -0.5511
     14 C8         -0.6616    3.5781    0.0197 C.2       1 <0>         0.5893
     15 N4          0.5953    4.0037    0.0098 N.am      1 <0>        -0.5791
     16 C9          1.6095    3.1487   -0.0007 C.2       1 <0>         0.5309
     17 O4          2.8890    3.5936   -0.0103 O.2       1 <0>        -0.5677
     18 N5         -1.6843    4.5123    0.0259 N.pl3     1 <0>        -0.7460
     19 H1          1.6488   -1.4205   -0.0214 H         1 <0>         0.2311
     20 H2         -1.7581   -0.7005    0.9051 H         1 <0>         0.0815
     21 H3         -1.7751   -0.6910   -0.8747 H         1 <0>         0.0799
     22 H4         -2.6618   -2.7758    0.5264 H         1 <0>         0.0940
     23 H5         -3.0715   -4.1823   -1.4350 H         1 <0>         0.0563
     24 H6         -2.4382   -2.6073   -1.9703 H         1 <0>         0.0435
     25 H7         -1.2929   -4.4271   -3.0105 H         1 <0>         0.3707
     26 H8         -0.9847   -4.2255    1.7087 H         1 <0>         0.0527
     27 H9         -2.1905   -5.1631    0.7948 H         1 <0>         0.0614
     28 H10         0.0361   -5.9067    0.3531 H         1 <0>         0.3724
     29 H11         0.7812    4.9863    0.0102 H         1 <0>         0.4397
     30 H12        -1.6080    5.0845    0.8425 H         1 <0>         0.3749
     31 H13        -2.6090    4.2192    0.0306 H         1 <0>         0.3967
@<TRIPOS>BOND
     1    1   19 1
     2    1    5 1
     3    1    2 2
     4    2    3 1
     5    3    4 2
     6    3   16 1
     7    4    5 1
     8    4   13 1
     9    5    6 1
    10    6    7 1
    11    6   20 1
    12    6   21 1
    13    7    8 1
    14    8    9 1
    15    8   11 1
    16    8   22 1
    17    9   10 1
    18    9   23 1
    19    9   24 1
    20   10   25 1
    21   11   12 1
    22   11   26 1
    23   11   27 1
    24   12   28 1
    25   13   14 2
    26   14   15 1
    27   14   18 1
    28   15   29 1
    29   15   16 am
    30   16   17 2
    31   18   31 1
    32   18   30 1
@<TRIPOS>MOLECULE
ZINC00001899
   33    34     0     0     0
SMALL
USER_CHARGES

@<TRIPOS>ATOM
      1 C1         -3.2917    2.6176    0.0464 C.2       1 <0>         0.2151
      2 N1         -2.5428    1.5539    0.0343 N.2       1 <0>        -0.4220
      3 C2         -1.2389    1.9233    0.0183 C.2       1 <0>        -0.1273
      4 C3         -0.0145    1.2150    0.0087 C.2       1 <0>         0.5899
      5 O1          0.0021   -0.0041    0.0020 O.2       1 <0>        -0.5037
      6 N2          1.1365    1.9232    0.0015 N.am      1 <0>        -0.6416
      7 H1          2.0147    1.4451   -0.0092 H         1 <0>         0.4319
      8 C4          1.1063    3.2859    0.0087 C.2       1 <0>         0.6042
      9 N3         -0.0246    3.9556    0.0222 N.2       1 <0>        -0.5620
     10 C5         -1.2034    3.3223    0.0300 C.2       1 <0>         0.2859
     11 N4         -2.5081    3.7351    0.0442 N.pl3     1 <0>        -0.4518
     12 C6         -2.9778    5.1227    0.0552 C.3       1 <0>         0.1066
     13 C7         -3.0358    5.6528   -1.3789 C.3       1 <0>        -0.1270
     14 C8         -3.5264    7.1020   -1.3674 C.3       1 <0>        -0.0860
     15 C9         -2.4998    7.9823   -0.6517 C.3       1 <0>         0.0824
     16 O2         -3.0097    9.3124   -0.5381 O.3       1 <0>        -0.5521
     17 C10        -3.7035    7.5918   -2.8060 C.3       1 <0>         0.0854
     18 O3         -4.2713    8.9031   -2.7962 O.3       1 <0>        -0.5525
     19 N5          2.2908    3.9787    0.0011 N.pl3     1 <0>        -0.7471
     20 H2         -4.3717    2.6166    0.0566 H         1 <0>         0.2245
     21 H3         -3.9724    5.1661    0.4991 H         1 <0>         0.1046
     22 H4         -2.2914    5.7340    0.6410 H         1 <0>         0.0990
     23 H5         -2.0413    5.6094   -1.8228 H         1 <0>         0.0776
     24 H6         -3.7222    5.0415   -1.9647 H         1 <0>         0.0819
     25 H7         -4.4809    7.1583   -0.8443 H         1 <0>         0.0911
     26 H8         -2.3076    7.5806    0.3432 H         1 <0>         0.0434
     27 H9         -1.5719    7.9964   -1.2234 H         1 <0>         0.0438
     28 H10        -2.4099    9.9268   -0.0933 H         1 <0>         0.3741
     29 H11        -2.7335    7.6197   -3.3024 H         1 <0>         0.0426
     30 H12        -4.3666    6.9128   -3.3420 H         1 <0>         0.0446
     31 H13        -4.4120    9.2774   -3.6767 H         1 <0>         0.3749
     32 H14         2.8241    3.7360    0.8115 H         1 <0>         0.3745
     33 H15         2.2854    4.9487    0.0060 H         1 <0>         0.3953
@<TRIPOS>BOND
     1    1   11 1
     2    1    2 2
     3    1   20 1
     4    2    3 1
     5    3   10 2
     6    3    4 1
     7    4    5 2
     8    4    6 am
     9    6    7 1
    10    6    8 1
    11    8    9 2
    12    8   19 1
    13    9   10 1
    14   10   11 1
    15   11   12 1
    16   12   13 1
    17   12   21 1
    18   12   22 1
    19   13   14 1
    20   13   23 1
    21   13   24 1
    22   14   15 1
    23   14   17 1
    24   14   25 1
    25   15   16 1
    26   15   26 1
    27   15   27 1
    28   16   28 1
    29   17   18 1
    30   17   29 1
    31   17   30 1
    32   18   31 1
    33   19   32 1
    34   19   33 1
@<TRIPOS>MOLECULE
ZINC00025672
   31    32     0     0     0
SMALL
USER_CHARGES

@<TRIPOS>ATOM
      1 C1          6.2065    3.1877    2.8765 C.3       1 <0>        -0.0816
      2 C2          4.8098    3.4298    2.3648 C.2       1 <0>        -0.2555
      3 C3          3.9902    2.3911    2.0957 C.2       1 <0>         0.1660
      4 N1          2.7249    2.6288    1.6321 N.am      1 <0>        -0.5315
      5 C4          2.2917    3.8876    1.4372 C.2       1 <0>         0.6985
      6 O1          1.1652    4.0760    1.0202 O.2       1 <0>        -0.5263
      7 N2          3.0860    4.9414    1.7023 N.am      1 <0>        -0.6635
      8 H1          2.7451    5.8705    1.5589 H         1 <0>         0.4378
      9 C5          4.3395    4.7494    2.1604 C.2       1 <0>         0.5533
     10 O2          5.0605    5.7022    2.3957 O.2       1 <0>        -0.5086
     11 C6          1.8356    1.5020    1.3396 C.3       1 <0>         0.3054
     12 H2          2.3769    0.5630    1.4559 H         1 <0>         0.1213
     13 C7          0.6221    1.5320    2.2889 C.3       1 <0>        -0.1925
     14 C8         -0.5991    1.6164    1.3411 C.3       1 <0>         0.0842
     15 H3         -0.9379    2.6468    1.2341 H         1 <0>         0.0908
     16 C9         -0.0127    1.0858    0.0080 C.3       1 <0>         0.0965
     17 H4          0.0021   -0.0041    0.0020 H         1 <0>         0.0939
     18 O3          1.3315    1.6126   -0.0020 O.3       1 <0>        -0.3476
     19 C10        -0.8091    1.6187   -1.1847 C.3       1 <0>         0.0851
     20 O4         -0.2860    1.0635   -2.3931 O.3       1 <0>        -0.5676
     21 O5         -1.6605    0.7775    1.8010 O.3       1 <0>        -0.5546
     22 H5          6.8927    3.1038    2.0338 H         1 <0>         0.0724
     23 H6          6.5104    4.0202    3.5111 H         1 <0>         0.0778
     24 H7          6.2265    2.2639    3.4547 H         1 <0>         0.0713
     25 H8          4.3315    1.3776    2.2459 H         1 <0>         0.1797
     26 H9          0.5807    0.6198    2.8841 H         1 <0>         0.1035
     27 H10         0.6660    2.4075    2.9367 H         1 <0>         0.0908
     28 H11        -1.8562    1.3355   -1.0782 H         1 <0>         0.0690
     29 H12        -0.7283    2.7052   -1.2193 H         1 <0>         0.0600
     30 H13        -0.7441    1.3584   -3.1920 H         1 <0>         0.3842
     31 H14        -2.0598    1.0684    2.6323 H         1 <0>         0.3880
@<TRIPOS>BOND
     1    1    2 1
     2    1   22 1
     3    1   23 1
     4    1   24 1
     5    2    9 1
     6    2    3 2
     7    3    4 1
     8    3   25 1
     9    4    5 am
    10    4   11 1
    11    5    6 2
    12    5    7 am
    13    7    8 1
    14    7    9 am
    15    9   10 2
    16   11   12 1
    17   11   18 1
    18   11   13 1
    19   13   14 1
    20   13   26 1
    21   13   27 1
    22   14   15 1
    23   14   16 1
    24   14   21 1
    25   16   17 1
    26   16   18 1
    27   16   19 1
    28   19   20 1
    29   19   28 1
    30   19   29 1
    31   20   30 1
    32   21   31 1
@<TRIPOS>MOLECULE
ZINC00155696
   28    29     0     0     0
SMALL
USER_CHARGES

@<TRIPOS>ATOM
      1 C1         -3.0851   -1.7391    1.0377 C.2       1 <0>        -0.2882
      2 C2         -2.0908   -1.2509    0.2656 C.2       1 <0>         0.1740
      3 N1         -1.0770   -0.5334    0.8397 N.am      1 <0>        -0.5311
      4 C3         -1.0589   -0.3141    2.1670 C.2       1 <0>         0.6981
      5 O1         -0.1460    0.3222    2.6570 O.2       1 <0>        -0.5199
      6 N2         -2.0399   -0.7847    2.9593 N.am      1 <0>        -0.6642
      7 H1         -2.0146   -0.6058    3.9428 H         1 <0>         0.4376
      8 C4         -3.0566   -1.4964    2.4322 C.2       1 <0>         0.5488
      9 O2         -3.9424   -1.9262    3.1490 O.2       1 <0>        -0.5129
     10 C5          0.0021   -0.0041    0.0020 C.3       1 <0>         0.3031
     11 H2         -0.0889   -0.3792   -1.0173 H         1 <0>         0.1203
     12 C6         -0.0189    1.5406    0.0105 C.3       1 <0>        -0.1939
     13 C7          1.4746    1.9364   -0.0016 C.3       1 <0>         0.0842
     14 H3          1.7270    2.5024    0.8950 H         1 <0>         0.0837
     15 C8          2.2212    0.5840   -0.0160 C.3       1 <0>         0.0923
     16 H4          2.4705    0.2991   -1.0381 H         1 <0>         0.0949
     17 O3          1.2881   -0.3587    0.5553 O.3       1 <0>        -0.3438
     18 C9          3.4872    0.6654    0.8394 C.3       1 <0>         0.0850
     19 O4          4.1843   -0.5805    0.7782 O.3       1 <0>        -0.5660
     20 O5          1.7831    2.6911   -1.1752 O.3       1 <0>        -0.5561
     21 H5         -3.8915   -2.3067    0.5974 H         1 <0>         0.1755
     22 H6         -2.0956   -1.4263   -0.8001 H         1 <0>         0.1814
     23 H7         -0.5219    1.9206   -0.8786 H         1 <0>         0.1003
     24 H8         -0.5048    1.9110    0.9131 H         1 <0>         0.0957
     25 H9          4.1302    1.4605    0.4619 H         1 <0>         0.0681
     26 H10         3.2142    0.8787    1.8729 H         1 <0>         0.0601
     27 H11         4.9990   -0.6013    1.2986 H         1 <0>         0.3847
     28 H12         1.2955    3.5231   -1.2472 H         1 <0>         0.3882
@<TRIPOS>BOND
     1    1    8 1
     2    1    2 2
     3    1   21 1
     4    2    3 1
     5    2   22 1
     6    3    4 am
     7    3   10 1
     8    4    5 2
     9    4    6 am
    10    6    7 1
    11    6    8 am
    12    8    9 2
    13   10   11 1
    14   10   17 1
    15   10   12 1
    16   12   13 1
    17   12   23 1
    18   12   24 1
    19   13   14 1
    20   13   15 1
    21   13   20 1
    22   15   16 1
    23   15   17 1
    24   15   18 1
    25   18   19 1
    26   18   25 1
    27   18   26 1
    28   19   27 1
    29   20   28 1
@<TRIPOS>MOLECULE
ZINC01530555
   27    28     0     0     0
SMALL
USER_CHARGES

@<TRIPOS>ATOM
      1 C1         -3.2917    2.6176    0.0464 C.2       1 <0>         0.2391
      2 N1         -2.5428    1.5539    0.0343 N.2       1 <0>        -0.4267
      3 C2         -1.2389    1.9233    0.0183 C.2       1 <0>        -0.1200
      4 C3         -0.0145    1.2150    0.0087 C.2       1 <0>         0.5910
      5 O1          0.0021   -0.0041    0.0020 O.2       1 <0>        -0.5022
      6 N2          1.1365    1.9232    0.0015 N.am      1 <0>        -0.6408
      7 H1          2.0147    1.4451   -0.0092 H         1 <0>         0.4325
      8 C4          1.1063    3.2859    0.0087 C.2       1 <0>         0.6044
      9 N3         -0.0246    3.9556    0.0222 N.2       1 <0>        -0.5637
     10 C5         -1.2034    3.3223    0.0300 C.2       1 <0>         0.2850
     11 N4         -2.5081    3.7351    0.0442 N.pl3     1 <0>        -0.4568
     12 C6         -2.9778    5.1227    0.0552 C.3       1 <0>         0.2964
     13 O2         -4.4066    5.1418    0.0688 O.3       1 <0>        -0.3861
     14 C7         -4.9702    6.4549    0.0803 C.3       1 <0>         0.0717
     15 C8         -6.4969    6.3546    0.0942 C.3       1 <0>         0.0771
     16 O3         -6.9233    5.7494    1.3165 O.3       1 <0>        -0.5677
     17 N5          2.2908    3.9787    0.0011 N.pl3     1 <0>        -0.7465
     18 H2         -4.3717    2.6166    0.0566 H         1 <0>         0.2270
     19 H3         -2.5992    5.6274    0.9440 H         1 <0>         0.0817
     20 H4         -2.6160    5.6358   -0.8359 H         1 <0>         0.0817
     21 H5         -4.6329    6.9873    0.9696 H         1 <0>         0.0667
     22 H6         -4.6498    6.9957   -0.8103 H         1 <0>         0.0740
     23 H7         -6.9273    7.3527    0.0134 H         1 <0>         0.0689
     24 H8         -6.8287    5.7465   -0.7474 H         1 <0>         0.0590
     25 H9         -7.8824    5.6537    1.3943 H         1 <0>         0.3844
     26 H10         2.8241    3.7360    0.8115 H         1 <0>         0.3745
     27 H11         2.2854    4.9487    0.0060 H         1 <0>         0.3955
@<TRIPOS>BOND
     1    1   11 1
     2    1    2 2
     3    1   18 1
     4    2    3 1
     5    3   10 2
     6    3    4 1
     7    4    5 2
     8    4    6 am
     9    6    7 1
    10    6    8 1
    11    8    9 2
    12    8   17 1
    13    9   10 1
    14   10   11 1
    15   11   12 1
    16   12   13 1
    17   12   19 1
    18   12   20 1
    19   13   14 1
    20   14   15 1
    21   14   21 1
    22   14   22 1
    23   15   16 1
    24   15   23 1
    25   15   24 1
    26   16   25 1
    27   17   26 1
    28   17   27 1
@<TRIPOS>MOLECULE
ZINC01851238
   27    28     0     0     0
SMALL
USER_CHARGES

@<TRIPOS>ATOM
      1 C1         -1.2165    2.1229    0.0194 C.2       1 <0>         0.1961
      2 C2         -1.2342    3.4732    0.0320 C.2       1 <0>        -0.2173
      3 C3         -0.0056    4.1784    0.0246 C.2       1 <0>         0.5580
      4 O1          0.0040    5.3962    0.0310 O.2       1 <0>        -0.4848
      5 N1          1.1530    3.4889    0.0098 N.am      1 <0>        -0.6535
      6 H1          2.0243    3.9796    0.0041 H         1 <0>         0.4471
      7 C4          1.1418    2.1430    0.0027 C.2       1 <0>         0.7048
      8 O2          2.1947    1.5350   -0.0102 O.2       1 <0>        -0.5242
      9 N2         -0.0178    1.4608    0.0101 N.am      1 <0>        -0.5198
     10 C5          0.0021   -0.0041    0.0020 C.3       1 <0>         0.2958
     11 H2          1.0168   -0.3722   -0.1496 H         1 <0>         0.1388
     12 C6         -0.5910   -0.5652    1.3195 C.3       1 <0>        -0.1905
     13 C7         -1.0676   -1.9731    0.8868 C.3       1 <0>         0.0680
     14 H3         -2.0301   -2.2067    1.3420 H         1 <0>         0.1173
     15 C8         -1.2058   -1.8710   -0.6446 C.3       1 <0>         0.0583
     16 H4         -0.5124   -2.5605   -1.1261 H         1 <0>         0.1046
     17 O3         -0.8859   -0.5190   -1.0133 O.3       1 <0>        -0.3561
     18 C9         -2.6406   -2.2014   -1.0606 C.3       1 <0>         0.0792
     19 O4         -2.7312   -2.2182   -2.4866 O.3       1 <0>        -0.5624
     20 F1         -0.1153   -2.9392    1.2292 F         1 <0>        -0.1899
     21 Cl1        -2.7421    4.3332    0.0510 Cl        1 <0>         0.0010
     22 H5         -2.1430    1.5679    0.0208 H         1 <0>         0.1871
     23 H6          0.1746   -0.6342    2.0923 H         1 <0>         0.1164
     24 H7         -1.4297    0.0428    1.6586 H         1 <0>         0.1078
     25 H8         -2.9168   -3.1798   -0.6674 H         1 <0>         0.0704
     26 H9         -3.3176   -1.4456   -0.6624 H         1 <0>         0.0602
     27 H10        -3.6150   -2.4215   -2.8222 H         1 <0>         0.3874
@<TRIPOS>BOND
     1    1    9 1
     2    1    2 2
     3    1   22 1
     4    2    3 1
     5    2   21 1
     6    3    4 2
     7    3    5 am
     8    5    6 1
     9    5    7 am
    10    7    8 2
    11    7    9 am
    12    9   10 1
    13   10   11 1
    14   10   17 1
    15   10   12 1
    16   12   13 1
    17   12   23 1
    18   12   24 1
    19   13   14 1
    20   13   15 1
    21   13   20 1
    22   15   16 1
    23   15   17 1
    24   15   18 1
    25   18   19 1
    26   18   25 1
    27   18   26 1
    28   19   27 1
@<TRIPOS>MOLECULE
ZINC02046904
   29    29     0     0     0
SMALL
USER_CHARGES

@<TRIPOS>ATOM
      1 C1         -1.1539   -0.8136    2.7951 C.3       1 <0>        -0.0862
      2 C2         -2.2988   -0.1659    2.0597 C.2       1 <0>        -0.2517
      3 C3         -2.1005    0.9593    1.3401 C.2       1 <0>         0.1933
      4 N1         -3.1520    1.5371    0.6822 N.am      1 <0>        -0.6383
      5 H1         -3.0067    2.3745    0.1552 H         1 <0>         0.4399
      6 C4         -4.3795    0.9891    0.7377 C.2       1 <0>         0.7007
      7 O1         -5.2989    1.5166    0.1421 O.2       1 <0>        -0.5397
      8 N2         -4.6052   -0.1323    1.4472 N.am      1 <0>        -0.6623
      9 H2         -5.5246   -0.5242    1.4801 H         1 <0>         0.4397
     10 C5         -3.5965   -0.7292    2.1137 C.2       1 <0>         0.5546
     11 O2         -3.7997   -1.7438    2.7559 O.2       1 <0>        -0.5067
     12 C6         -0.7288    1.5792    1.2668 C.3       1 <0>        -0.0855
     13 C7         -0.0127    1.0858    0.0080 C.3       1 <0>        -0.0904
     14 C8          1.4227    1.6154   -0.0028 C.3       1 <0>         0.0859
     15 O3          2.1264    1.0612   -1.1162 O.3       1 <0>        -0.5515
     16 C9         -0.7527    1.5927   -1.2315 C.3       1 <0>         0.0770
     17 O4         -0.1537    1.0374   -2.4041 O.3       1 <0>        -0.5476
     18 H3         -1.0896   -0.4017    3.8023 H         1 <0>         0.0733
     19 H4         -1.3210   -1.8892    2.8525 H         1 <0>         0.0795
     20 H5         -0.2231   -0.6184    2.2626 H         1 <0>         0.0722
     21 H6         -0.1536    1.2938    2.1476 H         1 <0>         0.1170
     22 H7         -0.8222    2.6646    1.2299 H         1 <0>         0.0960
     23 H8          0.0021   -0.0041    0.0020 H         1 <0>         0.0977
     24 H9          1.4084    2.7021   -0.0864 H         1 <0>         0.0455
     25 H10         1.9227    1.3287    0.9223 H         1 <0>         0.0490
     26 H11         3.0454    1.3541   -1.1860 H         1 <0>         0.3767
     27 H12        -1.7985    1.2898   -1.1795 H         1 <0>         0.0398
     28 H13        -0.6910    2.6801   -1.2722 H         1 <0>         0.0461
     29 H14        -0.5730    1.3163   -3.2297 H         1 <0>         0.3760
@<TRIPOS>BOND
     1    1    2 1
     2    1   18 1
     3    1   19 1
     4    1   20 1
     5    2   10 1
     6    2    3 2
     7    3    4 1
     8    3   12 1
     9    4    5 1
    10    4    6 am
    11    6    7 2
    12    6    8 am
    13    8    9 1
    14    8   10 am
    15   10   11 2
    16   12   13 1
    17   12   21 1
    18   12   22 1
    19   13   14 1
    20   13   16 1
    21   13   23 1
    22   14   15 1
    23   14   24 1
    24   14   25 1
    25   15   26 1
    26   16   17 1
    27   16   27 1
    28   16   28 1
    29   17   29 1
@<TRIPOS>MOLECULE
ZINC02046905
   25    25     0     0     0
SMALL
USER_CHARGES

@<TRIPOS>ATOM
      1 C1          1.2258    3.2360    2.5616 C.3       1 <0>        -0.0847
      2 C2          0.9187    1.8607    3.0958 C.2       1 <0>        -0.2581
      3 C3          0.0000    1.0800    2.4877 C.2       1 <0>         0.1974
      4 N1         -0.2701   -0.1643    2.9887 N.am      1 <0>        -0.6367
      5 H1         -0.9558   -0.7396    2.5428 H         1 <0>         0.4419
      6 C4          0.3782   -0.6211    4.0755 C.2       1 <0>         0.7006
      7 O1          0.1258   -1.7316    4.5014 O.2       1 <0>        -0.5402
      8 N2          1.2988    0.1359    4.7009 N.am      1 <0>        -0.6628
      9 H2          1.7688   -0.2182    5.5095 H         1 <0>         0.4393
     10 C5          1.5899    1.3698    4.2415 C.2       1 <0>         0.5546
     11 O2          2.4227    2.0553    4.8067 O.2       1 <0>        -0.5087
     12 C6         -0.7288    1.5792    1.2668 C.3       1 <0>        -0.0909
     13 C7         -0.0127    1.0858    0.0080 C.3       1 <0>        -0.1205
     14 C8         -0.7527    1.5927   -1.2315 C.3       1 <0>         0.0759
     15 O3         -0.0838    1.1318   -2.4072 O.3       1 <0>        -0.5744
     16 H3          0.5657    3.9644    3.0325 H         1 <0>         0.0720
     17 H4          2.2627    3.4887    2.7833 H         1 <0>         0.0784
     18 H5          1.0711    3.2496    1.4827 H         1 <0>         0.0718
     19 H6         -0.7436    2.6691    1.2728 H         1 <0>         0.1095
     20 H7         -1.7514    1.2020    1.2746 H         1 <0>         0.0935
     21 H8          0.0021   -0.0041    0.0020 H         1 <0>         0.0755
     22 H9          1.0099    1.4631    0.0003 H         1 <0>         0.0819
     23 H10        -1.7753    1.2154   -1.2238 H         1 <0>         0.0489
     24 H11        -0.7675    2.6825   -1.2255 H         1 <0>         0.0510
     25 H12        -0.4991    1.4161   -3.2329 H         1 <0>         0.3850
@<TRIPOS>BOND
     1    1    2 1
     2    1   16 1
     3    1   17 1
     4    1   18 1
     5    2   10 1
     6    2    3 2
     7    3    4 1
     8    3   12 1
     9    4    5 1
    10    4    6 am
    11    6    7 2
    12    6    8 am
    13    8    9 1
    14    8   10 am
    15   10   11 2
    16   12   13 1
    17   12   19 1
    18   12   20 1
    19   13   14 1
    20   13   21 1
    21   13   22 1
    22   14   15 1
    23   14   23 1
    24   14   24 1
    25   15   25 1
@<TRIPOS>MOLECULE
ZINC03792176
   27    28     0     0     0
SMALL
USER_CHARGES

@<TRIPOS>ATOM
      1 C1         -1.2160    2.1225    0.0194 C.2       1 <0>         0.2308
      2 C2         -1.2339    3.4728    0.0320 C.2       1 <0>        -0.2921
      3 C3         -0.0059    4.1781    0.0241 C.2       1 <0>         0.5628
      4 O1          0.0034    5.3959    0.0302 O.2       1 <0>        -0.4860
      5 N1          1.1529    3.4889    0.0093 N.am      1 <0>        -0.6541
      6 H1          2.0241    3.9797    0.0032 H         1 <0>         0.4456
      7 C4          1.1418    2.1430    0.0027 C.2       1 <0>         0.7064
      8 O2          2.1947    1.5351   -0.0098 O.2       1 <0>        -0.5234
      9 N2         -0.0178    1.4608    0.0101 N.am      1 <0>        -0.5218
     10 C5          0.0021   -0.0041    0.0020 C.3       1 <0>         0.2932
     11 H2          1.0168   -0.3722   -0.1496 H         1 <0>         0.1393
     12 C6         -0.5910   -0.5652    1.3195 C.3       1 <0>        -0.1908
     13 C7         -1.0676   -1.9731    0.8868 C.3       1 <0>         0.0683
     14 H3         -2.0301   -2.2067    1.3420 H         1 <0>         0.1177
     15 C8         -1.2058   -1.8710   -0.6446 C.3       1 <0>         0.0581
     16 H4         -0.5124   -2.5605   -1.1261 H         1 <0>         0.1050
     17 O3         -0.8859   -0.5190   -1.0133 O.3       1 <0>        -0.3562
     18 C9         -2.6406   -2.2014   -1.0606 C.3       1 <0>         0.0791
     19 O4         -2.7312   -2.2182   -2.4866 O.3       1 <0>        -0.5622
     20 F1         -0.1153   -2.9392    1.2292 F         1 <0>        -0.1895
     21 I1         -3.0539    4.5102    0.0549 I         1 <0>         0.0435
     22 H5         -2.1424    1.5675    0.0211 H         1 <0>         0.1838
     23 H6          0.1746   -0.6342    2.0923 H         1 <0>         0.1170
     24 H7         -1.4297    0.0428    1.6586 H         1 <0>         0.1070
     25 H8         -2.9168   -3.1798   -0.6674 H         1 <0>         0.0707
     26 H9         -3.3176   -1.4456   -0.6624 H         1 <0>         0.0602
     27 H10        -3.6150   -2.4215   -2.8222 H         1 <0>         0.3875
@<TRIPOS>BOND
     1    1    9 1
     2    1    2 2
     3    1   22 1
     4    2    3 1
     5    2   21 1
     6    3    4 2
     7    3    5 am
     8    5    6 1
     9    5    7 am
    10    7    8 2
    11    7    9 am
    12    9   10 1
    13   10   11 1
    14   10   17 1
    15   10   12 1
    16   12   13 1
    17   12   23 1
    18   12   24 1
    19   13   14 1
    20   13   15 1
    21   13   20 1
    22   15   16 1
    23   15   17 1
    24   15   18 1
    25   18   19 1
    26   18   25 1
    27   18   26 1
    28   19   27 1
@<TRIPOS>MOLECULE
ZINC03792179
   27    28     0     0     0
SMALL
USER_CHARGES

@<TRIPOS>ATOM
      1 C1          0.5213    1.0867   -4.5748 C.2       1 <0>        -0.2863
      2 C2         -0.2545    0.9767   -3.4752 C.2       1 <0>         0.1732
      3 N1          0.0086    1.7534   -2.3798 N.am      1 <0>        -0.5300
      4 C3          1.0298    2.6292   -2.3900 C.2       1 <0>         0.6989
      5 O1          1.2429    3.3128   -1.4074 O.2       1 <0>        -0.5195
      6 N2          1.8221    2.7555   -3.4708 N.am      1 <0>        -0.6639
      7 H1          2.5815    3.4060   -3.4584 H         1 <0>         0.4380
      8 C4          1.5959    2.0083   -4.5702 C.2       1 <0>         0.5487
      9 O2          2.3092    2.1256   -5.5503 O.2       1 <0>        -0.5119
     10 C5         -0.8335    1.6344   -1.1869 C.3       1 <0>         0.3009
     11 H2         -1.6949    0.9969   -1.3858 H         1 <0>         0.1240
     12 C6         -0.0127    1.0858    0.0080 C.3       1 <0>        -0.1884
     13 C7         -0.8095    1.6208    1.2227 C.3       1 <0>         0.0681
     14 H3         -0.1304    1.9642    2.0031 H         1 <0>         0.1136
     15 C8         -1.6186    2.8025    0.6521 C.3       1 <0>         0.0634
     16 H4         -2.6857    2.5982    0.7400 H         1 <0>         0.0988
     17 O3         -1.2592    2.9373   -0.7331 O.3       1 <0>        -0.3419
     18 C9         -1.2711    4.0870    1.4071 C.3       1 <0>         0.0792
     19 O4         -2.0990    5.1535    0.9389 O.3       1 <0>        -0.5636
     20 F1         -1.6679    0.6337    1.7185 F         1 <0>        -0.1947
     21 H5          0.3249    0.4794   -5.4461 H         1 <0>         0.1760
     22 H6         -1.0785    0.2787   -3.4602 H         1 <0>         0.1821
     23 H7          0.0021   -0.0041    0.0020 H         1 <0>         0.1083
     24 H8          1.0008    1.4868    0.0005 H         1 <0>         0.1119
     25 H9         -1.4389    3.9382    2.4738 H         1 <0>         0.0654
     26 H10        -0.2243    4.3375    1.2354 H         1 <0>         0.0643
     27 H11        -1.9331    6.0006    1.3748 H         1 <0>         0.3853
@<TRIPOS>BOND
     1    1    8 1
     2    1    2 2
     3    1   21 1
     4    2    3 1
     5    2   22 1
     6    3    4 am
     7    3   10 1
     8    4    5 2
     9    4    6 am
    10    6    7 1
    11    6    8 am
    12    8    9 2
    13   10   11 1
    14   10   17 1
    15   10   12 1
    16   12   13 1
    17   12   23 1
    18   12   24 1
    19   13   14 1
    20   13   15 1
    21   13   20 1
    22   15   16 1
    23   15   17 1
    24   15   18 1
    25   18   19 1
    26   18   25 1
    27   18   26 1
    28   19   27 1
@<TRIPOS>MOLECULE
ZINC03805724
   31    32     0     0     0
SMALL
USER_CHARGES

@<TRIPOS>ATOM
      1 C1          2.0476    4.3235    3.3042 C.2       1 <0>         0.2228
      2 C2          2.8231    3.9424    4.3421 C.2       1 <0>        -0.3006
      3 C3          4.1247    4.4864    4.4656 C.2       1 <0>         0.5613
      4 O1          4.8408    4.1615    5.3955 O.2       1 <0>        -0.4918
      5 N1          4.5640    5.3670    3.5439 N.am      1 <0>        -0.6572
      6 H1          5.4821    5.7553    3.6240 H         1 <0>         0.4425
      7 C4          3.7719    5.7256    2.5164 C.2       1 <0>         0.6969
      8 O2          4.1816    6.5211    1.6932 O.2       1 <0>        -0.5253
      9 N2          2.5332    5.2166    2.3876 N.am      1 <0>        -0.5244
     10 C5          1.6940    5.6267    1.2590 C.3       1 <0>         0.1124
     11 H2          1.5898    6.7117    1.2579 H         1 <0>         0.1241
     12 C6          2.3418    5.1720   -0.0525 C.3       1 <0>        -0.1353
     13 C7          2.4119    3.6420   -0.0709 C.3       1 <0>         0.0817
     14 H3          3.0508    3.2968    0.7419 H         1 <0>         0.0605
     15 C8          1.0024    3.0722    0.1089 C.3       1 <0>         0.0578
     16 H4          0.3746    3.3845   -0.7256 H         1 <0>         0.0852
     17 O3          0.4459    3.5586    1.3320 O.3       1 <0>        -0.3618
     18 C9          0.3122    4.9802    1.3875 C.3       1 <0>         0.0388
     19 C10         1.0713    1.5443    0.1517 C.3       1 <0>         0.0795
     20 O4         -0.2526    1.0091    0.2038 O.3       1 <0>        -0.5600
     21 O5          2.9483    3.2036   -1.3208 O.3       1 <0>        -0.5505
     22 I1          2.1071    2.5710    5.7548 I         1 <0>         0.0389
     23 H5          1.0505    3.9230    3.1960 H         1 <0>         0.1989
     24 H6          1.7435    5.5199   -0.8945 H         1 <0>         0.1011
     25 H7          3.3479    5.5853   -0.1246 H         1 <0>         0.1053
     26 H8         -0.3245    5.3177    0.5696 H         1 <0>         0.0945
     27 H9         -0.1361    5.2663    2.3389 H         1 <0>         0.1167
     28 H10         1.6252    1.2303    1.0364 H         1 <0>         0.0578
     29 H11         1.5764    1.1782   -0.7421 H         1 <0>         0.0632
     30 H12        -0.2854    0.0430    0.2329 H         1 <0>         0.3855
     31 H13         3.0168    2.2426   -1.4040 H         1 <0>         0.3815
@<TRIPOS>BOND
     1    1    9 1
     2    1    2 2
     3    1   23 1
     4    2    3 1
     5    2   22 1
     6    3    4 2
     7    3    5 am
     8    5    6 1
     9    5    7 am
    10    7    8 2
    11    7    9 am
    12    9   10 1
    13   10   11 1
    14   10   18 1
    15   10   12 1
    16   12   13 1
    17   12   24 1
    18   12   25 1
    19   13   14 1
    20   13   15 1
    21   13   21 1
    22   15   16 1
    23   15   17 1
    24   15   19 1
    25   17   18 1
    26   18   26 1
    27   18   27 1
    28   19   20 1
    29   19   28 1
    30   19   29 1
    31   20   30 1
    32   21   31 1
@<TRIPOS>MOLECULE
ZINC03834164
   29    30     0     0     0
SMALL
USER_CHARGES

@<TRIPOS>ATOM
      1 C1         -0.0877    3.9330    0.0231 C.2       1 <0>        -0.3073
      2 C2         -1.2383    3.2265    0.0303 C.2       1 <0>         0.2113
      3 N1         -1.1939    1.8589    0.0178 N.am      1 <0>        -0.5209
      4 C3         -0.0144    1.2117    0.0087 C.2       1 <0>         0.7043
      5 O1          0.0021   -0.0041    0.0020 O.2       1 <0>        -0.5399
      6 N2          1.1475    1.8910    0.0013 N.am      1 <0>        -0.6611
      7 H1          2.0150    1.3937   -0.0093 H         1 <0>         0.4388
      8 C4          1.1464    3.2394    0.0081 C.2       1 <0>         0.5511
      9 O2          2.1972    3.8549    0.0017 O.2       1 <0>        -0.5149
     10 C5         -2.4423    1.0923    0.0196 C.3       1 <0>         0.3102
     11 H2         -2.2400    0.0313   -0.1270 H         1 <0>         0.1437
     12 C6         -3.2219    1.3219    1.3394 C.3       1 <0>         0.0708
     13 H3         -2.8860    0.6332    2.1145 H         1 <0>         0.1043
     14 C7         -4.6774    1.0087    0.9150 C.3       1 <0>         0.0484
     15 H4         -5.3685    1.7186    1.3694 H         1 <0>         0.0920
     16 C8         -4.6673    1.1712   -0.6174 C.3       1 <0>         0.0548
     17 H5         -4.9069    0.2200   -1.0926 H         1 <0>         0.0969
     18 O3         -3.3436    1.5861   -0.9944 O.3       1 <0>        -0.3547
     19 C9         -5.6872    2.2326   -1.0347 C.3       1 <0>         0.0783
     20 O4         -5.7544    2.2939   -2.4608 O.3       1 <0>        -0.5635
     21 O5         -5.0258   -0.3300    1.2736 O.3       1 <0>        -0.5479
     22 O6         -3.0977    2.6770    1.7759 O.3       1 <0>        -0.5434
     23 H6         -0.1086    5.0128    0.0284 H         1 <0>         0.1723
     24 H7         -2.1893    3.7383    0.0414 H         1 <0>         0.1825
     25 H8         -6.6673    1.9714   -0.6357 H         1 <0>         0.0638
     26 H9         -5.3824    3.2031   -0.6432 H         1 <0>         0.0604
     27 H10        -6.3828    2.9474   -2.7972 H         1 <0>         0.3857
     28 H11        -5.9279   -0.5801    1.0310 H         1 <0>         0.3921
     29 H12        -3.5685    2.8700    2.5982 H         1 <0>         0.3923
@<TRIPOS>BOND
     1    1    8 1
     2    1    2 2
     3    1   23 1
     4    2    3 1
     5    2   24 1
     6    3    4 am
     7    3   10 1
     8    4    5 2
     9    4    6 am
    10    6    7 1
    11    6    8 am
    12    8    9 2
    13   10   11 1
    14   10   18 1
    15   10   12 1
    16   12   13 1
    17   12   14 1
    18   12   22 1
    19   14   15 1
    20   14   16 1
    21   14   21 1
    22   16   17 1
    23   16   18 1
    24   16   19 1
    25   19   20 1
    26   19   25 1
    27   19   26 1
    28   20   27 1
    29   21   28 1
    30   22   29 1
@<TRIPOS>MOLECULE
ZINC03834165
   29    30     0     0     0
SMALL
USER_CHARGES

@<TRIPOS>ATOM
      1 C1          0.2309    0.2729   -5.7902 C.3       1 <0>        -0.0859
      2 C2          0.5055    1.1139   -4.5702 C.2       1 <0>        -0.2549
      3 C3         -0.2650    0.9925   -3.4680 C.2       1 <0>         0.1652
      4 N1         -0.0049    1.7675   -2.3707 N.am      1 <0>        -0.5312
      5 C4          1.0177    2.6419   -2.3761 C.2       1 <0>         0.6935
      6 O1          1.2339    3.3173   -1.3885 O.2       1 <0>        -0.5116
      7 N2          1.8044    2.7797   -3.4595 N.am      1 <0>        -0.6638
      8 H1          2.5599    3.4347   -3.4463 H         1 <0>         0.4378
      9 C5          1.5779    2.0381   -4.5626 C.2       1 <0>         0.5534
     10 O2          2.2889    2.1625   -5.5434 O.2       1 <0>        -0.5099
     11 C6         -0.8439    1.6396   -1.1766 C.3       1 <0>         0.3076
     12 H2         -1.6945    0.9886   -1.3789 H         1 <0>         0.1287
     13 C7         -0.0127    1.0858    0.0080 C.3       1 <0>        -0.1608
     14 C8         -0.8230    1.6280    1.2169 C.3       1 <0>         0.0877
     15 H3         -1.6560    0.9661    1.4538 H         1 <0>         0.0909
     16 C9         -1.3337    2.9853    0.6861 C.3       1 <0>         0.1715
     17 H4         -2.3560    3.1554    1.0238 H         1 <0>         0.1120
     18 O3         -1.2971    2.9325   -0.7448 O.3       1 <0>        -0.3527
     19 C10        -0.4619    4.0690    1.1682 C.1       1 <0>        -0.1987
     20 C11         0.2334    4.9333    1.5527 C.1       1 <0>        -0.1559
     21 O4          0.0222    1.8112    2.3546 O.3       1 <0>        -0.5395
     22 H5          0.9575    0.5113   -6.5669 H         1 <0>         0.0813
     23 H6          0.3107   -0.7824   -5.5295 H         1 <0>         0.0717
     24 H7         -0.7743    0.4816   -6.1566 H         1 <0>         0.0718
     25 H8         -1.0852    0.2901   -3.4540 H         1 <0>         0.1801
     26 H9          0.0021   -0.0041    0.0020 H         1 <0>         0.1029
     27 H10         0.9995    1.4900    0.0005 H         1 <0>         0.1072
     28 H11         0.8553    5.7062    1.8966 H         1 <0>         0.2167
     29 H12        -0.4373    2.1485    3.1357 H         1 <0>         0.3851
@<TRIPOS>BOND
     1    1    2 1
     2    1   22 1
     3    1   23 1
     4    1   24 1
     5    2    9 1
     6    2    3 2
     7    3    4 1
     8    3   25 1
     9    4    5 am
    10    4   11 1
    11    5    6 2
    12    5    7 am
    13    7    8 1
    14    7    9 am
    15    9   10 2
    16   11   12 1
    17   11   18 1
    18   11   13 1
    19   13   14 1
    20   13   26 1
    21   13   27 1
    22   14   15 1
    23   14   16 1
    24   14   21 1
    25   16   17 1
    26   16   18 1
    27   16   19 1
    28   19   20 3
    29   20   28 1
    30   21   29 1
@<TRIPOS>MOLECULE
ZINC03834166
   35    37     0     0     0
SMALL
USER_CHARGES

@<TRIPOS>ATOM
      1 C1          2.2281    0.7916   -0.0150 C.2       1 <0>        -0.1560
      2 C2          1.3451   -0.2677   -0.0122 C.2       1 <0>        -0.1173
      3 C3          0.0021   -0.0041    0.0020 C.2       1 <0>        -0.0889
      4 S1         -0.0221    1.7811    0.0118 S.3       1 <0>         0.0456
      5 C4          1.7414    2.0579   -0.0035 C.2       1 <0>        -0.1656
      6 C5         -1.1337   -0.9516    0.0074 C.2       1 <0>        -0.1537
      7 C6         -1.9746   -1.0265    1.0846 C.2       1 <0>         0.2054
      8 N1         -3.0124   -1.9065    1.0537 N.am      1 <0>        -0.5158
      9 C7         -3.2020   -2.6985   -0.0168 C.2       1 <0>         0.6864
     10 O1         -4.1355   -3.4836   -0.0210 O.2       1 <0>        -0.4957
     11 N2         -2.3907   -2.6436   -1.0730 N.am      1 <0>        -0.6134
     12 C8         -1.3689   -1.8045   -1.1014 C.2       1 <0>         0.5130
     13 O2         -0.5546   -1.7601   -2.1787 O.2       1 <0>        -0.5584
     14 C9         -3.9250   -1.9960    2.1962 C.3       1 <0>         0.2990
     15 H1         -3.5736   -1.3644    3.0121 H         1 <0>         0.1231
     16 C10        -5.3541   -1.5864    1.7762 C.3       1 <0>        -0.1977
     17 C11        -6.2676   -2.5464    2.5741 C.3       1 <0>         0.0860
     18 H2         -6.9195   -1.9857    3.2440 H         1 <0>         0.0843
     19 C12        -5.2815   -3.4182    3.3828 C.3       1 <0>         0.0911
     20 H3         -5.1400   -3.0043    4.3812 H         1 <0>         0.0963
     21 O3         -4.0458   -3.3660    2.6371 O.3       1 <0>        -0.3434
     22 C13        -5.7910   -4.8583    3.4692 C.3       1 <0>         0.0910
     23 O4         -4.8874   -5.6369    4.2561 O.3       1 <0>        -0.5727
     24 O5         -7.0412   -3.3570    1.6872 O.3       1 <0>        -0.5449
     25 H4          3.2936    0.6153   -0.0261 H         1 <0>         0.1375
     26 H5          1.7062   -1.2854   -0.0208 H         1 <0>         0.1348
     27 H6          2.2818    2.9930   -0.0042 H         1 <0>         0.1882
     28 H7         -1.8189   -0.3934    1.9456 H         1 <0>         0.1912
     29 H8         -2.5569   -3.2450   -1.8544 H         1 <0>         0.4476
     30 H9         -5.5514   -0.5507    2.0527 H         1 <0>         0.0992
     31 H10        -5.4932   -1.7299    0.7047 H         1 <0>         0.1025
     32 H11        -6.7774   -4.8675    3.9330 H         1 <0>         0.0643
     33 H12        -5.8569   -5.2811    2.4667 H         1 <0>         0.0695
     34 H13        -5.1482   -6.5629    4.3536 H         1 <0>         0.3840
     35 H14        -7.6773   -2.8604    1.1544 H         1 <0>         0.3834
@<TRIPOS>BOND
     1    1    5 2
     2    1    2 1
     3    1   25 1
     4    2    3 2
     5    2   26 1
     6    3    4 1
     7    3    6 1
     8    4    5 1
     9    5   27 1
    10    6   12 1
    11    6    7 2
    12    7    8 1
    13    7   28 1
    14    8   14 1
    15    8    9 am
    16    9   10 2
    17    9   11 am
    18   11   29 1
    19   11   12 am
    20   12   13 2
    21   14   15 1
    22   14   21 1
    23   14   16 1
    24   16   17 1
    25   16   30 1
    26   16   31 1
    27   17   18 1
    28   17   19 1
    29   17   24 1
    30   19   20 1
    31   19   21 1
    32   19   22 1
    33   22   23 1
    34   22   32 1
    35   22   33 1
    36   23   34 1
    37   24   35 1
@<TRIPOS>MOLECULE
ZINC03834167
   35    37     0     0     0
SMALL
USER_CHARGES

@<TRIPOS>ATOM
      1 C1         -5.3106   -2.7235   -0.0262 C.2       1 <0>        -0.1219
      2 C2         -5.9887   -3.7949    0.5168 C.2       1 <0>        -0.1051
      3 C3         -5.3194   -4.9539    0.7442 C.2       1 <0>        -0.1759
      4 S1         -3.6749   -4.5541    0.1763 S.3       1 <0>         0.1081
      5 C4         -3.9837   -2.8694   -0.3275 C.2       1 <0>        -0.0686
      6 C5         -3.0473   -1.8852   -0.9126 C.2       1 <0>        -0.1647
      7 C6         -1.9807   -1.4225   -0.1905 C.2       1 <0>         0.2131
      8 N1         -1.1417   -0.5136   -0.7585 N.am      1 <0>        -0.5187
      9 C7         -1.3530   -0.0845   -2.0157 C.2       1 <0>         0.6784
     10 O1         -0.5858    0.7268   -2.5067 O.2       1 <0>        -0.4782
     11 N2         -2.3830   -0.5278   -2.7363 N.am      1 <0>        -0.6139
     12 C8         -3.2339   -1.4074   -2.2351 C.2       1 <0>         0.5144
     13 O2         -4.2737   -1.8474   -2.9772 O.2       1 <0>        -0.5599
     14 C9          0.0021   -0.0041    0.0020 C.3       1 <0>         0.3014
     15 H1         -0.0352   -0.3809    1.0241 H         1 <0>         0.1227
     16 C10         1.3184   -0.4407   -0.6698 C.3       1 <0>        -0.1962
     17 C11         2.0444    0.8904   -0.9828 C.3       1 <0>         0.0840
     18 H2          3.1108    0.8107   -0.7720 H         1 <0>         0.0833
     19 C12         1.3576    1.8735   -0.0008 C.3       1 <0>         0.0954
     20 H3          1.7950    1.7905    0.9941 H         1 <0>         0.0968
     21 O3         -0.0174    1.4332    0.0099 O.3       1 <0>        -0.3449
     22 C13         1.4593    3.3100   -0.5175 C.3       1 <0>         0.0880
     23 O4          0.8301    4.1958    0.4107 O.3       1 <0>        -0.5721
     24 O5          1.8230    1.2855   -2.3381 O.3       1 <0>        -0.5279
     25 Br1        -5.9633   -6.5748    1.4751 Br        1 <0>         0.0406
     26 H4         -5.8178   -1.7885   -0.2128 H         1 <0>         0.1438
     27 H5         -7.0373   -3.7115    0.7616 H         1 <0>         0.1452
     28 H6         -1.8095   -1.7707    0.8174 H         1 <0>         0.1907
     29 H7         -2.5141   -0.1907   -3.6686 H         1 <0>         0.4473
     30 H8          1.9124   -1.0477    0.0135 H         1 <0>         0.1040
     31 H9          1.1139   -0.9891   -1.5893 H         1 <0>         0.0951
     32 H10         2.5088    3.5835   -0.6265 H         1 <0>         0.0625
     33 H11         0.9622    3.3843   -1.4847 H         1 <0>         0.0711
     34 H12         0.8567    5.1257    0.1469 H         1 <0>         0.3838
     35 H13         2.1562    0.6548   -2.9911 H         1 <0>         0.3784
@<TRIPOS>BOND
     1    1    5 2
     2    1    2 1
     3    1   26 1
     4    2    3 2
     5    2   27 1
     6    3    4 1
     7    3   25 1
     8    4    5 1
     9    5    6 1
    10    6   12 1
    11    6    7 2
    12    7    8 1
    13    7   28 1
    14    8   14 1
    15    8    9 am
    16    9   10 2
    17    9   11 am
    18   11   29 1
    19   11   12 am
    20   12   13 2
    21   14   15 1
    22   14   21 1
    23   14   16 1
    24   16   17 1
    25   16   30 1
    26   16   31 1
    27   17   18 1
    28   17   19 1
    29   17   24 1
    30   19   20 1
    31   19   21 1
    32   19   22 1
    33   22   23 1
    34   22   32 1
    35   22   33 1
    36   23   34 1
    37   24   35 1
@<TRIPOS>MOLECULE
ZINC03834168
   35    37     0     0     0
SMALL
USER_CHARGES

@<TRIPOS>ATOM
      1 C1         -1.1556    1.9018    0.0171 C.2       1 <0>        -0.2119
      2 C2         -0.0126    1.0758    0.0080 C.2       1 <0>        -0.1603
      3 C3          1.0671    1.9016    0.0021 C.2       1 <0>         0.0411
      4 O1          0.6229    3.1727    0.0127 O.3       1 <0>        -0.1733
      5 C4         -0.7211    3.1763    0.0252 C.2       1 <0>        -0.0308
      6 C5          2.4833    1.4777   -0.0125 C.2       1 <0>        -0.1686
      7 C6          3.2851    1.7594   -1.0860 C.2       1 <0>         0.2150
      8 N1          4.5838    1.3546   -1.0655 N.am      1 <0>        -0.5200
      9 C7          5.0725    0.6866   -0.0052 C.2       1 <0>         0.6786
     10 O2          6.2399    0.3334   -0.0084 O.2       1 <0>        -0.4792
     11 N2          4.3077    0.4031    1.0491 N.am      1 <0>        -0.6137
     12 C8          3.0396    0.7763    1.0881 C.2       1 <0>         0.5145
     13 O3          2.2778    0.4866    2.1657 O.2       1 <0>        -0.5613
     14 C9          5.4555    1.6477   -2.2059 C.3       1 <0>         0.3018
     15 H1          4.8746    2.1001   -3.0096 H         1 <0>         0.1226
     16 C10         6.5827    2.6045   -1.7714 C.3       1 <0>        -0.1959
     17 C11         7.8834    1.8273   -2.0888 C.3       1 <0>         0.0845
     18 H2          8.6371    2.4885   -2.5165 H         1 <0>         0.0834
     19 C12         7.3966    0.7933   -3.1358 C.3       1 <0>         0.0951
     20 H3          7.3447    1.2453   -4.1263 H         1 <0>         0.0974
     21 O4          6.0745    0.4370   -2.6719 O.3       1 <0>        -0.3465
     22 C13         8.3145   -0.4307   -3.1514 C.3       1 <0>         0.0886
     23 O5          7.9138   -1.3132   -4.2015 O.3       1 <0>        -0.5734
     24 O6          8.3846    1.1734   -0.9212 O.3       1 <0>        -0.5280
     25 H4         -2.1847    1.5741    0.0198 H         1 <0>         0.1520
     26 H5          0.0021   -0.0041    0.0020 H         1 <0>         0.1490
     27 H6         -1.3483    4.0555    0.0349 H         1 <0>         0.2063
     28 H7          2.8921    2.2957   -1.9371 H         1 <0>         0.1906
     29 H8          4.6981   -0.0986    1.8210 H         1 <0>         0.4472
     30 H9          6.5409    3.5294   -2.3467 H         1 <0>         0.1036
     31 H10         6.5132    2.8164   -0.7045 H         1 <0>         0.0950
     32 H11         9.3432   -0.1113   -3.3179 H         1 <0>         0.0634
     33 H12         8.2452   -0.9490   -2.1950 H         1 <0>         0.0704
     34 H13         8.4532   -2.1128   -4.2706 H         1 <0>         0.3842
     35 H14         8.6181    1.7766   -0.2023 H         1 <0>         0.3784
@<TRIPOS>BOND
     1    1    5 2
     2    1    2 1
     3    1   25 1
     4    2    3 2
     5    2   26 1
     6    3    4 1
     7    3    6 1
     8    4    5 1
     9    5   27 1
    10    6   12 1
    11    6    7 2
    12    7    8 1
    13    7   28 1
    14    8   14 1
    15    8    9 am
    16    9   10 2
    17    9   11 am
    18   11   29 1
    19   11   12 am
    20   12   13 2
    21   14   15 1
    22   14   21 1
    23   14   16 1
    24   16   17 1
    25   16   30 1
    26   16   31 1
    27   17   18 1
    28   17   19 1
    29   17   24 1
    30   19   20 1
    31   19   21 1
    32   19   22 1
    33   22   23 1
    34   22   32 1
    35   22   33 1
    36   23   34 1
    37   24   35 1
@<TRIPOS>MOLECULE
ZINC03834169
   36    38     0     0     0
SMALL
USER_CHARGES

@<TRIPOS>ATOM
      1 C1         -5.3104   -2.7229   -0.0219 C.2       1 <0>        -0.1445
      2 C2         -5.9886   -3.7945    0.5204 C.2       1 <0>        -0.1083
      3 C3         -5.3193   -4.9536    0.7477 C.2       1 <0>        -0.1743
      4 S1         -3.6749   -4.5539    0.1796 S.3       1 <0>         0.1200
      5 C4         -3.9837   -2.8692   -0.3242 C.2       1 <0>        -0.0864
      6 C5         -3.0475   -1.8854   -0.9099 C.2       1 <0>        -0.2143
      7 C6         -1.9811   -1.4231   -0.1895 C.2       1 <0>         0.2286
      8 N1         -1.1417   -0.5136   -0.7585 N.am      1 <0>        -0.5223
      9 C7         -1.3525   -0.0842   -2.0156 C.2       1 <0>         0.6382
     10 O1         -0.5844    0.7266   -2.5062 O.2       1 <0>        -0.4739
     11 N2         -2.3820   -0.5258   -2.7363 N.2       1 <0>        -0.5639
     12 C8         -3.2350   -1.4067   -2.2346 C.2       1 <0>         0.4855
     13 N3         -4.2932   -1.8535   -2.9893 N.pl3     1 <0>        -0.7499
     14 C9          0.0021   -0.0041    0.0020 C.3       1 <0>         0.2895
     15 H1         -0.0352   -0.3809    1.0241 H         1 <0>         0.1099
     16 C10         1.3184   -0.4407   -0.6698 C.3       1 <0>        -0.1926
     17 C11         2.0444    0.8904   -0.9828 C.3       1 <0>         0.0854
     18 H2          3.1108    0.8107   -0.7720 H         1 <0>         0.0804
     19 C12         1.3576    1.8735   -0.0008 C.3       1 <0>         0.0956
     20 H3          1.7950    1.7905    0.9941 H         1 <0>         0.0935
     21 O2         -0.0174    1.4332    0.0099 O.3       1 <0>        -0.3432
     22 C13         1.4593    3.3100   -0.5175 C.3       1 <0>         0.0882
     23 O3          0.8301    4.1958    0.4107 O.3       1 <0>        -0.5726
     24 O4          1.8230    1.2855   -2.3381 O.3       1 <0>        -0.5250
     25 Br1        -5.9633   -6.5743    1.4787 Br        1 <0>         0.0448
     26 H4         -5.8173   -1.7875   -0.2077 H         1 <0>         0.1442
     27 H5         -7.0372   -3.7111    0.7653 H         1 <0>         0.1467
     28 H6         -1.8090   -1.7714    0.8182 H         1 <0>         0.1782
     29 H7         -4.8716   -1.0786   -3.2440 H         1 <0>         0.3759
     30 H8         -4.9155   -2.4984   -2.6182 H         1 <0>         0.3794
     31 H9          1.9124   -1.0477    0.0135 H         1 <0>         0.0986
     32 H10         1.1139   -0.9891   -1.5893 H         1 <0>         0.0941
     33 H11         2.5088    3.5835   -0.6265 H         1 <0>         0.0615
     34 H12         0.9622    3.3843   -1.4847 H         1 <0>         0.0723
     35 H13         0.8567    5.1257    0.1469 H         1 <0>         0.3828
     36 H14         2.1562    0.6548   -2.9911 H         1 <0>         0.3780
@<TRIPOS>BOND
     1    1    5 2
     2    1    2 1
     3    1   26 1
     4    2    3 2
     5    2   27 1
     6    3    4 1
     7    3   25 1
     8    4    5 1
     9    5    6 1
    10    6   12 1
    11    6    7 2
    12    7    8 1
    13    7   28 1
    14    8    9 am
    15    8   14 1
    16    9   10 2
    17    9   11 1
    18   11   12 2
    19   12   13 1
    20   13   29 1
    21   13   30 1
    22   14   15 1
    23   14   21 1
    24   14   16 1
    25   16   17 1
    26   16   31 1
    27   16   32 1
    28   17   18 1
    29   17   19 1
    30   17   24 1
    31   19   20 1
    32   19   21 1
    33   19   22 1
    34   22   23 1
    35   22   33 1
    36   22   34 1
    37   23   35 1
    38   24   36 1
@<TRIPOS>MOLECULE
ZINC03834170
   36    38     0     0     0
SMALL
USER_CHARGES

@<TRIPOS>ATOM
      1 C1          5.8376    6.0828   -3.2442 C.2       1 <0>        -0.1200
      2 C2          7.1110    6.0690   -3.7739 C.2       1 <0>        -0.1063
      3 C3          7.9928    5.1278   -3.3498 C.2       1 <0>        -0.1759
      4 S1          7.0253    4.2191   -2.1561 S.3       1 <0>         0.1147
      5 C4          5.5054    5.1438   -2.3058 C.2       1 <0>        -0.0722
      6 C5          4.2227    4.9495   -1.5954 C.2       1 <0>        -0.1597
      7 C6          3.4833    3.8141   -1.7888 C.2       1 <0>         0.2163
      8 N1          2.3073    3.6685   -1.1190 N.am      1 <0>        -0.5137
      9 C7          1.8761    4.6301   -0.2831 C.2       1 <0>         0.6867
     10 O1          0.8167    4.4812    0.3028 O.2       1 <0>        -0.4952
     11 N2          2.5851    5.7400   -0.0778 N.am      1 <0>        -0.6117
     12 C8          3.7349    5.9364   -0.7009 C.2       1 <0>         0.5148
     13 O2          4.4398    7.0692   -0.4874 O.2       1 <0>        -0.5551
     14 C9          1.5033    2.4595   -1.3143 C.3       1 <0>         0.3105
     15 H1          1.9237    1.8502   -2.1143 H         1 <0>         0.1343
     16 C10         1.4269    1.6468   -0.0027 C.3       1 <0>         0.0711
     17 H2          1.5914    2.2930    0.8595 H         1 <0>         0.1004
     18 C11        -0.0127    1.0858    0.0080 C.3       1 <0>         0.0530
     19 H3          0.0021   -0.0041    0.0020 H         1 <0>         0.0933
     20 C12        -0.6358    1.6259   -1.2983 C.3       1 <0>         0.0534
     21 H4         -0.5434    0.8887   -2.0959 H         1 <0>         0.0966
     22 O3          0.1337    2.8067   -1.6135 O.3       1 <0>        -0.3336
     23 C13        -2.1049    1.9910   -1.0765 C.3       1 <0>         0.0784
     24 O4         -2.6928    2.3773   -2.3203 O.3       1 <0>        -0.5647
     25 O5         -0.7301    1.5693    1.1454 O.3       1 <0>        -0.5414
     26 O6          2.3793    0.5816   -0.0175 O.3       1 <0>        -0.5492
     27 Br1         9.7868    4.8543   -3.8817 Br        1 <0>         0.0408
     28 H5          5.1166    6.8207   -3.5636 H         1 <0>         0.1441
     29 H6          7.4029    6.7974   -4.5159 H         1 <0>         0.1454
     30 H7          3.8279    3.0447   -2.4637 H         1 <0>         0.1940
     31 H8          2.2429    6.4336    0.5560 H         1 <0>         0.4492
     32 H9         -2.6371    1.1285   -0.6754 H         1 <0>         0.0636
     33 H10        -2.1709    2.8191   -0.3707 H         1 <0>         0.0715
     34 H11        -3.6259    2.6228   -2.2550 H         1 <0>         0.3866
     35 H12        -1.6491    1.2715    1.1865 H         1 <0>         0.3835
     36 H13         2.3342    0.0029    0.7558 H         1 <0>         0.3965
@<TRIPOS>BOND
     1    1    5 2
     2    1    2 1
     3    1   28 1
     4    2    3 2
     5    2   29 1
     6    3    4 1
     7    3   27 1
     8    4    5 1
     9    5    6 1
    10    6   12 1
    11    6    7 2
    12    7    8 1
    13    7   30 1
    14    8   14 1
    15    8    9 am
    16    9   10 2
    17    9   11 am
    18   11   31 1
    19   11   12 am
    20   12   13 2
    21   14   15 1
    22   14   22 1
    23   14   16 1
    24   16   17 1
    25   16   18 1
    26   16   26 1
    27   18   19 1
    28   18   20 1
    29   18   25 1
    30   20   21 1
    31   20   22 1
    32   20   23 1
    33   23   24 1
    34   23   32 1
    35   23   33 1
    36   24   34 1
    37   25   35 1
    38   26   36 1
@<TRIPOS>MOLECULE
ZINC03834171
   27    28     0     0     0
SMALL
USER_CHARGES

@<TRIPOS>ATOM
      1 C1         -1.2162    2.1227    0.0194 C.2       1 <0>         0.2244
      2 C2         -1.2340    3.4731    0.0320 C.2       1 <0>        -0.2763
      3 C3         -0.0057    4.1783    0.0241 C.2       1 <0>         0.5623
      4 O1          0.0038    5.3961    0.0302 O.2       1 <0>        -0.4837
      5 N1          1.1530    3.4889    0.0093 N.am      1 <0>        -0.6536
      6 H1          2.0243    3.9796    0.0032 H         1 <0>         0.4465
      7 C4          1.1418    2.1430    0.0027 C.2       1 <0>         0.7058
      8 O2          2.1947    1.5350   -0.0098 O.2       1 <0>        -0.5231
      9 N2         -0.0178    1.4608    0.0101 N.am      1 <0>        -0.5207
     10 C5          0.0021   -0.0041    0.0020 C.3       1 <0>         0.2940
     11 H2          1.0168   -0.3722   -0.1496 H         1 <0>         0.1392
     12 C6         -0.5910   -0.5652    1.3195 C.3       1 <0>        -0.1907
     13 C7         -1.0676   -1.9731    0.8868 C.3       1 <0>         0.0682
     14 H3         -2.0301   -2.2067    1.3420 H         1 <0>         0.1177
     15 C8         -1.2058   -1.8710   -0.6446 C.3       1 <0>         0.0582
     16 H4         -0.5124   -2.5605   -1.1261 H         1 <0>         0.1049
     17 O3         -0.8859   -0.5190   -1.0133 O.3       1 <0>        -0.3561
     18 C9         -2.6406   -2.2014   -1.0606 C.3       1 <0>         0.0791
     19 O4         -2.7312   -2.2182   -2.4866 O.3       1 <0>        -0.5623
     20 F1         -0.1153   -2.9392    1.2292 F         1 <0>        -0.1897
     21 Br1        -2.8767    4.4096    0.0527 Br        1 <0>         0.0252
     22 H5         -2.1427    1.5677    0.0211 H         1 <0>         0.1876
     23 H6          0.1746   -0.6342    2.0923 H         1 <0>         0.1168
     24 H7         -1.4297    0.0428    1.6586 H         1 <0>         0.1076
     25 H8         -2.9168   -3.1798   -0.6674 H         1 <0>         0.0706
     26 H9         -3.3176   -1.4456   -0.6624 H         1 <0>         0.0604
     27 H10        -3.6150   -2.4215   -2.8222 H         1 <0>         0.3875
@<TRIPOS>BOND
     1    1    9 1
     2    1    2 2
     3    1   22 1
     4    2    3 1
     5    2   21 1
     6    3    4 2
     7    3    5 am
     8    5    6 1
     9    5    7 am
    10    7    8 2
    11    7    9 am
    12    9   10 1
    13   10   11 1
    14   10   17 1
    15   10   12 1
    16   12   13 1
    17   12   23 1
    18   12   24 1
    19   13   14 1
    20   13   15 1
    21   13   20 1
    22   15   16 1
    23   15   17 1
    24   15   18 1
    25   18   19 1
    26   18   25 1
    27   18   26 1
    28   19   27 1
@<TRIPOS>MOLECULE
ZINC03834172
   37    38     0     0     0
SMALL
USER_CHARGES

@<TRIPOS>ATOM
      1 C1         -1.7628    0.3882   -2.8087 C.3       1 <0>        -0.0917
      2 C2         -0.5491    1.2536   -3.0305 C.2       1 <0>        -0.2653
      3 C3         -0.0165    1.9594   -2.0101 C.2       1 <0>         0.2066
      4 N1          1.0826    2.7443   -2.2300 N.am      1 <0>        -0.6118
      5 H1          1.4721    3.2736   -1.4763 H         1 <0>         0.4468
      6 C4          1.6441    2.8105   -3.4509 C.2       1 <0>         0.6969
      7 O1          2.6234    3.5103   -3.6230 O.2       1 <0>        -0.5405
      8 N2          1.1337    2.1175   -4.4857 N.am      1 <0>        -0.6640
      9 H2          1.5613    2.1817   -5.3874 H         1 <0>         0.4376
     10 C5          0.0481    1.3370   -4.3114 C.2       1 <0>         0.5549
     11 O2         -0.4146    0.7099   -5.2472 O.2       1 <0>        -0.5129
     12 C6         -0.6332    1.8879   -0.6369 C.3       1 <0>        -0.0778
     13 C7          0.0508    0.7843    0.1725 C.3       1 <0>        -0.0870
     14 C8         -0.6777    0.6001    1.5058 C.3       1 <0>         0.1479
     15 H3         -1.6302    0.0991    1.3330 H         1 <0>         0.1286
     16 N3          0.1447   -0.2120    2.4044 N.am      1 <0>        -0.7098
     17 C9          1.4829   -0.0998    2.4057 C.2       1 <0>         0.7092
     18 O3          2.1286   -0.7111    3.2343 O.2       1 <0>        -0.5455
     19 N4          2.1251    0.6716    1.5128 N.am      1 <0>        -0.6700
     20 C10         1.4839    1.1701    0.4400 C.2       1 <0>         0.5333
     21 O4          2.0581    1.9288   -0.3114 O.2       1 <0>        -0.4961
     22 C11        -0.9297    1.9684    2.1423 C.3       1 <0>         0.0508
     23 O5         -1.7108    1.8057    3.3278 O.3       1 <0>        -0.5621
     24 C12         0.0128   -0.5263   -0.6160 C.3       1 <0>        -0.1548
     25 H4         -2.6594    0.9413   -3.0882 H         1 <0>         0.0721
     26 H5         -1.6849   -0.5106   -3.4205 H         1 <0>         0.0784
     27 H6         -1.8219    0.1078   -1.7571 H         1 <0>         0.0747
     28 H7         -1.6966    1.6663   -0.7273 H         1 <0>         0.1291
     29 H8         -0.5032    2.8440   -0.1300 H         1 <0>         0.1020
     30 H9         -0.2831   -0.8398    3.0076 H         1 <0>         0.4318
     31 H10         3.0652    0.8720    1.6433 H         1 <0>         0.4315
     32 H11         0.0236    2.4321    2.3961 H         1 <0>         0.0481
     33 H12        -1.4665    2.6036    1.4378 H         1 <0>         0.0711
     34 H13        -1.9094    2.6344    3.7848 H         1 <0>         0.3896
     35 H14         0.6228   -1.2735   -0.1084 H         1 <0>         0.0696
     36 H15        -1.0157   -0.8809   -0.6822 H         1 <0>         0.0954
     37 H16         0.4045   -0.3581   -1.6193 H         1 <0>         0.0834
@<TRIPOS>BOND
     1    1    2 1
     2    1   25 1
     3    1   26 1
     4    1   27 1
     5    2   10 1
     6    2    3 2
     7    3    4 1
     8    3   12 1
     9    4    5 1
    10    4    6 am
    11    6    7 2
    12    6    8 am
    13    8    9 1
    14    8   10 am
    15   10   11 2
    16   12   13 1
    17   12   28 1
    18   12   29 1
    19   13   20 1
    20   13   14 1
    21   13   24 1
    22   14   15 1
    23   14   16 1
    24   14   22 1
    25   16   17 am
    26   16   30 1
    27   17   18 2
    28   17   19 am
    29   19   20 am
    30   19   31 1
    31   20   21 2
    32   22   23 1
    33   22   32 1
    34   22   33 1
    35   23   34 1
    36   24   35 1
    37   24   36 1
    38   24   37 1
@<TRIPOS>MOLECULE
ZINC03834173
   28    29     0     0     0
SMALL
USER_CHARGES

@<TRIPOS>ATOM
      1 C1          2.2901    3.9085    1.4315 C.2       1 <0>         0.2308
      2 C2          3.1110    4.9454    1.7046 C.2       1 <0>        -0.2932
      3 C3          4.4174    4.6821    2.1838 C.2       1 <0>         0.5631
      4 O1          5.1775    5.6005    2.4323 O.2       1 <0>        -0.4871
      5 N1          4.8119    3.4051    2.3619 N.am      1 <0>        -0.6548
      6 H1          5.7328    3.2110    2.6998 H         1 <0>         0.4450
      7 C4          3.9713    2.3906    2.0867 C.2       1 <0>         0.7058
      8 O2          4.3412    1.2442    2.2519 O.2       1 <0>        -0.5243
      9 N2          2.7277    2.6269    1.6309 N.am      1 <0>        -0.5255
     10 C5          1.8356    1.5020    1.3396 C.3       1 <0>         0.2950
     11 H2          2.3746    0.5618    1.4567 H         1 <0>         0.1372
     12 C6          0.6221    1.5320    2.2889 C.3       1 <0>        -0.2007
     13 C7         -0.5991    1.6164    1.3411 C.3       1 <0>         0.0788
     14 H3         -0.9379    2.6468    1.2341 H         1 <0>         0.0847
     15 C8         -0.0127    1.0858    0.0080 C.3       1 <0>         0.0880
     16 H4          0.0021   -0.0041    0.0020 H         1 <0>         0.1016
     17 O3          1.3315    1.6126   -0.0020 O.3       1 <0>        -0.3562
     18 C9         -0.8091    1.6187   -1.1847 C.3       1 <0>         0.0852
     19 O4         -0.2860    1.0635   -2.3931 O.3       1 <0>        -0.5649
     20 O5         -1.6605    0.7775    1.8010 O.3       1 <0>        -0.5472
     21 I1          2.4635    6.9168    1.4157 I         1 <0>         0.0419
     22 H5          1.2917    4.0896    1.0615 H         1 <0>         0.1798
     23 H6          0.5807    0.6198    2.8841 H         1 <0>         0.1137
     24 H7          0.6660    2.4075    2.9367 H         1 <0>         0.0958
     25 H8         -1.8562    1.3355   -1.0782 H         1 <0>         0.0734
     26 H9         -0.7283    2.7052   -1.2193 H         1 <0>         0.0568
     27 H10        -0.7441    1.3584   -3.1920 H         1 <0>         0.3865
     28 H11        -2.0598    1.0684    2.6323 H         1 <0>         0.3910
@<TRIPOS>BOND
     1    1    9 1
     2    1    2 2
     3    1   22 1
     4    2    3 1
     5    2   21 1
     6    3    4 2
     7    3    5 am
     8    5    6 1
     9    5    7 am
    10    7    8 2
    11    7    9 am
    12    9   10 1
    13   10   11 1
    14   10   17 1
    15   10   12 1
    16   12   13 1
    17   12   23 1
    18   12   24 1
    19   13   14 1
    20   13   15 1
    21   13   20 1
    22   15   16 1
    23   15   17 1
    24   15   18 1
    25   18   19 1
    26   18   25 1
    27   18   26 1
    28   19   27 1
    29   20   28 1
@<TRIPOS>MOLECULE
ZINC03834174
   34    36     0     0     0
SMALL
USER_CHARGES

@<TRIPOS>ATOM
      1 C1          4.8664    6.4095    0.7779 C.3       1 <0>        -0.0811
      2 C2          4.2341    5.1311    1.2647 C.2       1 <0>        -0.2617
      3 C3          3.0727    4.6958    0.7311 C.2       1 <0>         0.1669
      4 N1          2.5125    3.5327    1.1846 N.am      1 <0>        -0.5260
      5 C4          3.1054    2.8214    2.1606 C.2       1 <0>         0.6945
      6 O1          2.5880    1.7931    2.5518 O.2       1 <0>        -0.5307
      7 N2          4.2661    3.2295    2.7065 N.am      1 <0>        -0.6639
      8 H1          4.6969    2.6845    3.4258 H         1 <0>         0.4374
      9 C5          4.8502    4.3702    2.2874 C.2       1 <0>         0.5525
     10 O2          5.8978    4.7428    2.7842 O.2       1 <0>        -0.5107
     11 C6          1.2521    3.0606    0.6061 C.3       1 <0>         0.1746
     12 H2          0.8929    3.7590   -0.1498 H         1 <0>         0.1197
     13 C7          1.4307    1.6476   -0.0028 C.3       1 <0>        -0.1694
     14 C8         -0.0127    1.0858    0.0080 C.3       1 <0>         0.1456
     15 H3          0.0021   -0.0041    0.0020 H         1 <0>         0.0792
     16 C9         -0.6130    1.6104    1.3287 C.3       1 <0>        -0.1171
     17 C10         0.1912    2.8660    1.7090 C.3       1 <0>        -0.1584
     18 H4          0.4915    3.0723    2.7362 H         1 <0>         0.1196
     19 C11        -1.2843    2.9852    1.3220 C.3       1 <0>        -0.1250
     20 C12        -1.0148    0.5743    2.3804 C.3       1 <0>         0.1207
     21 O3         -1.7310   -0.4901    1.7510 O.3       1 <0>        -0.5679
     22 O4         -0.7504    1.5809   -1.1112 O.3       1 <0>        -0.5580
     23 H5          4.4950    7.2466    1.3690 H         1 <0>         0.0710
     24 H6          5.9492    6.3424    0.8831 H         1 <0>         0.0770
     25 H7          4.6121    6.5642   -0.2707 H         1 <0>         0.0703
     26 H8          2.5883    5.2628   -0.0501 H         1 <0>         0.1777
     27 H9          2.0867    1.0390    0.6196 H         1 <0>         0.1017
     28 H10         1.8128    1.7114   -1.0216 H         1 <0>         0.0808
     29 H11        -1.9969    3.2005    2.1182 H         1 <0>         0.1038
     30 H12        -1.5156    3.4269    0.3527 H         1 <0>         0.1076
     31 H13        -0.1200    0.1768    2.8593 H         1 <0>         0.0571
     32 H14        -1.6497    1.0456    3.1307 H         1 <0>         0.0506
     33 H15        -2.0177   -1.1850    2.3594 H         1 <0>         0.3821
     34 H16        -0.3974    1.3051   -1.9681 H         1 <0>         0.3794
@<TRIPOS>BOND
     1    1    2 1
     2    1   23 1
     3    1   24 1
     4    1   25 1
     5    2    9 1
     6    2    3 2
     7    3    4 1
     8    3   26 1
     9    4    5 am
    10    4   11 1
    11    5    6 2
    12    5    7 am
    13    7    8 1
    14    7    9 am
    15    9   10 2
    16   11   12 1
    17   11   17 1
    18   11   13 1
    19   13   14 1
    20   13   27 1
    21   13   28 1
    22   14   15 1
    23   14   16 1
    24   14   22 1
    25   16   19 1
    26   16   17 1
    27   16   20 1
    28   17   18 1
    29   17   19 1
    30   19   29 1
    31   19   30 1
    32   20   21 1
    33   20   31 1
    34   20   32 1
    35   21   33 1
    36   22   34 1
