@<TRIPOS>MOLECULE
ZINC00007460
   40    43     0     0     0
SMALL
USER_CHARGES

@<TRIPOS>ATOM
      1 C1          0.6690    7.0553   -2.3936 C.ar      1 <0>        -0.0873
      2 C2          1.0739    7.2419   -3.7133 C.ar      1 <0>        -0.1032
      3 C3          2.0473    6.4637   -4.2673 C.ar      1 <0>        -0.0878
      4 C4          2.6469    5.4619   -3.4971 C.ar      1 <0>        -0.1051
      5 C5          2.2350    5.2708   -2.1524 C.ar      1 <0>        -0.0365
      6 C6          1.2326    6.0886   -1.6150 C.ar      1 <0>        -0.1000
      7 C7          2.8646    4.2527   -1.4128 C.ar      1 <0>         0.0668
      8 N1          3.8006    3.5320   -1.9865 N.ar      1 <0>        -0.2122
      9 N2          4.1739    3.6948   -3.2009 N.ar      1 <0>        -0.3147
     10 C8          3.6614    4.6154   -3.9991 C.ar      1 <0>         0.3624
     11 N3          4.1107    4.7484   -5.3032 N.pl3     1 <0>        -0.6427
     12 C9          5.0264    3.8294   -5.8242 C.ar      1 <0>         0.1604
     13 C10         5.9973    4.2489   -6.7247 C.ar      1 <0>        -0.1361
     14 C11         6.9042    3.3400   -7.2334 C.ar      1 <0>        -0.0881
     15 C12         6.8391    2.0103   -6.8556 C.ar      1 <0>        -0.0507
     16 C13         5.8692    1.5885   -5.9630 C.ar      1 <0>        -0.0859
     17 C14         4.9634    2.4941   -5.4468 C.ar      1 <0>        -0.1011
     18 Cl1         7.9765    0.8693   -7.5021 Cl        1 <0>        -0.0688
     19 C15         2.4744    3.9969    0.0202 C.3       1 <0>        -0.0232
     20 C16         1.3575    2.9861    0.0639 C.ar      1 <0>        -0.0362
     21 C17         1.6310    1.6293    0.1449 C.ar      1 <0>        -0.1574
     22 C18         0.5807    0.7317    0.1834 C.ar      1 <0>         0.1006
     23 N4         -0.6682    1.1526    0.1390 N.ar      1 <0>        -0.4856
     24 C19        -0.9655    2.4354    0.0670 C.ar      1 <0>         0.0994
     25 C20         0.0320    3.3909    0.0245 C.ar      1 <0>        -0.1702
     26 H1         -0.1037    7.6868   -1.9806 H         1 <0>         0.1364
     27 H2          0.6099    8.0155   -4.3071 H         1 <0>         0.1355
     28 H3          2.3518    6.6190   -5.2917 H         1 <0>         0.1315
     29 H4          0.9091    5.9543   -0.5934 H         1 <0>         0.1410
     30 H5          3.7898    5.4792   -5.8545 H         1 <0>         0.4199
     31 H6          6.0458    5.2857   -7.0233 H         1 <0>         0.1341
     32 H7          7.6623    3.6665   -7.9298 H         1 <0>         0.1380
     33 H8          5.8209    0.5503   -5.6697 H         1 <0>         0.1376
     34 H9          4.2069    2.1645   -4.7500 H         1 <0>         0.1416
     35 H10         2.1399    4.9280    0.4774 H         1 <0>         0.0974
     36 H11         3.3346    3.6117    0.5677 H         1 <0>         0.1044
     37 H12         2.6518    1.2781    0.1771 H         1 <0>         0.1397
     38 H13         0.7853   -0.3269    0.2462 H         1 <0>         0.1573
     39 H14        -2.0005    2.7425    0.0368 H         1 <0>         0.1558
     40 H15        -0.2178    4.4397   -0.0389 H         1 <0>         0.1330
@<TRIPOS>BOND
     1    1    6 ar
     2    1    2 ar
     3    1   26 1
     4    2    3 ar
     5    2   27 1
     6    3    4 ar
     7    3   28 1
     8    4   10 ar
     9    4    5 ar
    10    5    6 ar
    11    5    7 ar
    12    6   29 1
    13    7    8 ar
    14    7   19 1
    15    8    9 ar
    16    9   10 ar
    17   10   11 1
    18   11   12 1
    19   11   30 1
    20   12   17 ar
    21   12   13 ar
    22   13   14 ar
    23   13   31 1
    24   14   15 ar
    25   14   32 1
    26   15   16 ar
    27   15   18 1
    28   16   17 ar
    29   16   33 1
    30   17   34 1
    31   19   20 1
    32   19   35 1
    33   19   36 1
    34   20   25 ar
    35   20   21 ar
    36   21   22 ar
    37   21   37 1
    38   22   23 ar
    39   22   38 1
    40   23   24 ar
    41   24   25 ar
    42   24   39 1
    43   25   40 1
@<TRIPOS>MOLECULE
ZINC00007582
   27    30     0     0     0
SMALL
USER_CHARGES

@<TRIPOS>ATOM
      1 C1          1.1766    1.7842    0.0004 C.ar      1 <0>        -0.1022
      2 C2          1.1606    3.1678    0.0075 C.ar      1 <0>        -0.1197
      3 C3         -0.0378    3.8500    0.0217 C.ar      1 <0>        -0.0922
      4 C4         -1.2425    3.1421    0.0294 C.ar      1 <0>        -0.0429
      5 C5         -1.2145    1.7482    0.0173 C.ar      1 <0>        -0.0696
      6 C6         -0.0126    1.0758    0.0080 C.ar      1 <0>        -0.0994
      7 C7         -2.6486    1.2789    0.0335 C.3       1 <0>        -0.0096
      8 C8         -3.4901    2.5320    0.0464 C.2       1 <0>        -0.2239
      9 C9         -2.6487    3.6023    0.0439 C.2       1 <0>         0.1076
     10 N1         -3.4230    4.7292    0.0556 N.pl3     1 <0>        -0.4547
     11 H1         -3.0888    5.6717    0.0569 H         1 <0>         0.4496
     12 N2         -4.7656    4.3326    0.0654 N.2       1 <0>        -0.2495
     13 C10        -4.8103    3.0151    0.0599 C.2       1 <0>         0.1811
     14 C11        -6.0370    2.1883    0.0668 C.2       1 <0>        -0.0887
     15 C12        -7.2314    2.4226    0.6926 C.2       1 <0>        -0.1259
     16 C13        -8.2460    1.5005    0.5506 C.2       1 <0>        -0.1582
     17 C14        -8.0275    0.3864   -0.1931 C.2       1 <0>        -0.1693
     18 S1         -6.3421    0.6214   -0.7328 S.3       1 <0>         0.0821
     19 H2          2.1185    1.2561   -0.0107 H         1 <0>         0.1316
     20 H3          2.0911    3.7160    0.0016 H         1 <0>         0.1300
     21 H4         -0.0452    4.9300    0.0264 H         1 <0>         0.1232
     22 H5          0.0021   -0.0041    0.0020 H         1 <0>         0.1319
     23 H6         -2.8439    0.6854    0.9267 H         1 <0>         0.1021
     24 H7         -2.8593    0.6934   -0.8615 H         1 <0>         0.1004
     25 H8         -7.3773    3.3148    1.2836 H         1 <0>         0.1373
     26 H9         -9.2009    1.6600    1.0291 H         1 <0>         0.1386
     27 H10        -8.7001   -0.4318   -0.4041 H         1 <0>         0.1903
@<TRIPOS>BOND
     1    1    6 ar
     2    1    2 ar
     3    1   19 1
     4    2    3 ar
     5    2   20 1
     6    3    4 ar
     7    3   21 1
     8    4    9 1
     9    4    5 ar
    10    5    6 ar
    11    5    7 1
    12    6   22 1
    13    7    8 1
    14    7   23 1
    15    7   24 1
    16    8   13 1
    17    8    9 2
    18    9   10 1
    19   10   11 1
    20   10   12 1
    21   12   13 2
    22   13   14 1
    23   14   18 1
    24   14   15 2
    25   15   16 1
    26   15   25 1
    27   16   17 2
    28   16   26 1
    29   17   18 1
    30   17   27 1
@<TRIPOS>MOLECULE
ZINC00008576
   30    33     0     0     0
SMALL
USER_CHARGES

@<TRIPOS>ATOM
      1 C1          3.2306   -1.2283    2.8333 C.ar      1 <0>        -0.1130
      2 C2          2.2072   -2.1057    2.5174 C.ar      1 <0>        -0.0920
      3 C3          1.2727   -1.7733    1.5559 C.ar      1 <0>        -0.0879
      4 C4          1.3540   -0.5520    0.9012 C.ar      1 <0>        -0.0658
      5 C5          2.3853    0.3411    1.2259 C.ar      1 <0>        -0.0413
      6 C6          3.3246   -0.0089    2.1935 C.ar      1 <0>        -0.0916
      7 C7          2.4652    1.6495    0.5455 C.2       1 <0>         0.1377
      8 C8          1.4247    2.2572   -0.1016 C.2       1 <0>        -0.2140
      9 C9          1.8882    3.4766   -0.6109 C.2       1 <0>         0.1280
     10 N1          3.1606    3.6011   -0.2873 N.2       1 <0>        -0.2558
     11 N2          3.5474    2.4661    0.4393 N.pl3     1 <0>        -0.4552
     12 H1          4.4577    2.2885    0.8132 H         1 <0>         0.4524
     13 C10         1.0862    4.4591   -1.3812 C.ar      1 <0>         0.0286
     14 C11         1.6282    5.1179   -2.4882 C.ar      1 <0>        -0.1442
     15 C12         0.8461    6.0201   -3.1793 C.ar      1 <0>         0.1038
     16 N3         -0.3928    6.2711   -2.8013 N.ar      1 <0>        -0.4795
     17 C13        -0.9403    5.6748   -1.7595 C.ar      1 <0>         0.1041
     18 C14        -0.2300    4.7551   -1.0159 C.ar      1 <0>        -0.1529
     19 C15         0.0378    1.6779   -0.2216 C.3       1 <0>        -0.0252
     20 S1          0.1675   -0.1302   -0.3311 S.3       1 <0>        -0.0948
     21 H2          3.9585   -1.4991    3.5838 H         1 <0>         0.1336
     22 H3          2.1390   -3.0560    3.0260 H         1 <0>         0.1355
     23 H4          0.4784   -2.4638    1.3138 H         1 <0>         0.1388
     24 H5          4.1248    0.6724    2.4422 H         1 <0>         0.1256
     25 H6          2.6432    4.9208   -2.8002 H         1 <0>         0.1395
     26 H7          1.2550    6.5313   -4.0383 H         1 <0>         0.1617
     27 H8         -1.9580    5.9101   -1.4850 H         1 <0>         0.1623
     28 H9         -0.6845    4.2708   -0.1642 H         1 <0>         0.1392
     29 H10        -0.4433    2.0649   -1.1199 H         1 <0>         0.1227
     30 H11        -0.5490    1.9498    0.6558 H         1 <0>         0.0997
@<TRIPOS>BOND
     1    1    6 ar
     2    1    2 ar
     3    1   21 1
     4    2    3 ar
     5    2   22 1
     6    3    4 ar
     7    3   23 1
     8    4   20 1
     9    4    5 ar
    10    5    6 ar
    11    5    7 1
    12    6   24 1
    13    7   11 1
    14    7    8 2
    15    8    9 1
    16    8   19 1
    17    9   10 2
    18    9   13 1
    19   10   11 1
    20   11   12 1
    21   13   18 ar
    22   13   14 ar
    23   14   15 ar
    24   14   25 1
    25   15   16 ar
    26   15   26 1
    27   16   17 ar
    28   17   18 ar
    29   17   27 1
    30   18   28 1
    31   19   20 1
    32   19   29 1
    33   19   30 1
@<TRIPOS>MOLECULE
ZINC00008981
   37    42     0     0     0
SMALL
USER_CHARGES

@<TRIPOS>ATOM
      1 C1          3.7583    8.4401    0.0090 C.ar      1 <0>        -0.1060
      2 C2          2.4686    8.9409    0.0226 C.ar      1 <0>        -0.1153
      3 C3          1.3898    8.0820    0.0286 C.ar      1 <0>        -0.0968
      4 C4          1.5988    6.7005    0.0205 C.ar      1 <0>        -0.0604
      5 C5          2.9007    6.2062    0.0063 C.ar      1 <0>        -0.0826
      6 C6          3.9728    7.0730    0.0013 C.ar      1 <0>        -0.0953
      7 C7          2.8137    4.7000   -0.0002 C.3       1 <0>        -0.0473
      8 C8          1.3407    4.3665    0.0115 C.ar      1 <0>         0.0148
      9 C9          0.6399    5.5695    0.0237 C.ar      1 <0>        -0.0582
     10 C10        -0.7658    5.5617    0.0368 C.ar      1 <0>         0.1925
     11 C11        -1.4577    4.3381    0.0375 C.ar      1 <0>        -0.0321
     12 C12        -2.8919    4.6716    0.0521 C.ar      1 <0>        -0.1095
     13 C13        -4.0557    3.9044    0.0591 C.ar      1 <0>        -0.0476
     14 C14        -5.2851    4.5266    0.0727 C.ar      1 <0>        -0.1463
     15 C15        -5.3678    5.9108    0.0797 C.ar      1 <0>        -0.0720
     16 C16        -4.2253    6.6818    0.0733 C.ar      1 <0>        -0.1420
     17 C17        -2.9742    6.0729    0.0592 C.ar      1 <0>         0.1420
     18 N1         -1.6894    6.5848    0.0498 N.pl3     1 <0>        -0.6049
     19 H1         -1.4696    7.5296    0.0526 H         1 <0>         0.4221
     20 C18        -0.7468    3.1356    0.0252 C.ar      1 <0>        -0.0783
     21 C19         0.6626    3.1570    0.0121 C.ar      1 <0>        -0.1534
     22 C20         1.0872    1.7423    0.0010 C.2       1 <0>         0.5844
     23 O1          2.2356    1.3466   -0.0117 O.2       1 <0>        -0.4602
     24 N2         -0.0111    0.9658    0.0074 N.am      1 <0>        -0.6797
     25 C21        -1.1300    1.7121    0.0162 C.2       1 <0>         0.5813
     26 O2         -2.2672    1.2842    0.0191 O.2       1 <0>        -0.4555
     27 H2          4.5993    9.1175    0.0047 H         1 <0>         0.1313
     28 H3          2.3061   10.0086    0.0289 H         1 <0>         0.1296
     29 H4          0.3845    8.4766    0.0400 H         1 <0>         0.1145
     30 H5          4.9806    6.6849   -0.0089 H         1 <0>         0.1309
     31 H6          3.2978    4.2924    0.8873 H         1 <0>         0.1161
     32 H7          3.2817    4.3010   -0.9002 H         1 <0>         0.1161
     33 H8         -3.9941    2.8262    0.0536 H         1 <0>         0.1412
     34 H9         -6.1879    3.9338    0.0775 H         1 <0>         0.1322
     35 H10        -6.3361    6.3891    0.0900 H         1 <0>         0.1339
     36 H11        -4.3011    7.7591    0.0789 H         1 <0>         0.1286
     37 H12         0.0021   -0.0041    0.0020 H         1 <0>         0.4322
@<TRIPOS>BOND
     1    1    6 ar
     2    1    2 ar
     3    1   27 1
     4    2    3 ar
     5    2   28 1
     6    3    4 ar
     7    3   29 1
     8    4    9 1
     9    4    5 ar
    10    5    6 ar
    11    5    7 1
    12    6   30 1
    13    7    8 1
    14    7   31 1
    15    7   32 1
    16    8   21 ar
    17    8    9 ar
    18    9   10 ar
    19   10   18 1
    20   10   11 ar
    21   11   12 1
    22   11   20 ar
    23   12   17 ar
    24   12   13 ar
    25   13   14 ar
    26   13   33 1
    27   14   15 ar
    28   14   34 1
    29   15   16 ar
    30   15   35 1
    31   16   17 ar
    32   16   36 1
    33   17   18 1
    34   18   19 1
    35   20   25 1
    36   20   21 ar
    37   21   22 1
    38   22   23 2
    39   22   24 am
    40   24   25 am
    41   24   37 1
    42   25   26 2
@<TRIPOS>MOLECULE
ZINC00023575
   32    35     0     0     0
SMALL
USER_CHARGES

@<TRIPOS>ATOM
      1 C1          1.1740    2.0825    0.0020 C.ar      1 <0>        -0.1043
      2 C2         -0.0167    1.3775    0.0096 C.ar      1 <0>        -0.1197
      3 C3          0.0021   -0.0041    0.0020 C.ar      1 <0>        -0.1014
      4 C4          1.2169   -0.6740   -0.0144 C.ar      1 <0>        -0.0353
      5 C5          2.4226    0.0366   -0.0508 C.ar      1 <0>        -0.0509
      6 C6          2.3858    1.4176   -0.0280 C.ar      1 <0>        -0.1160
      7 C7          3.7418   -0.6792   -0.1352 C.3       1 <0>        -0.0826
      8 C8          3.7406   -2.0051    0.6231 C.3       1 <0>        -0.0446
      9 C9          2.4908   -2.7768    0.2929 C.2       1 <0>        -0.2098
     10 C10         1.3013   -2.1483    0.0060 C.2       1 <0>         0.1278
     11 N1          0.3741   -3.1010   -0.2205 N.pl3     1 <0>        -0.4521
     12 H1         -0.5887   -2.9459   -0.4416 H         1 <0>         0.4495
     13 N2          1.0033   -4.3506   -0.0901 N.2       1 <0>        -0.2682
     14 C11         2.2733   -4.1510    0.2162 C.2       1 <0>         0.1173
     15 C12         3.2914   -5.2072    0.4393 C.ar      1 <0>         0.0334
     16 C13         4.6194   -5.0186    0.0466 C.ar      1 <0>        -0.1546
     17 C14         5.5348   -6.0247    0.2770 C.ar      1 <0>         0.1022
     18 N3          5.1685   -7.1554    0.8498 N.ar      1 <0>        -0.4820
     19 C15         3.9246   -7.3753    1.2307 C.ar      1 <0>         0.1023
     20 C16         2.9471   -6.4201    1.0425 C.ar      1 <0>        -0.1474
     21 H2          1.1565    3.1622    0.0195 H         1 <0>         0.1276
     22 H3         -0.9585    1.9060    0.0170 H         1 <0>         0.1292
     23 H4         -0.9241   -0.5596    0.0084 H         1 <0>         0.1220
     24 H5          3.3077    1.9802   -0.0332 H         1 <0>         0.1302
     25 H6          4.5182   -0.0367    0.2802 H         1 <0>         0.0848
     26 H7          3.9712   -0.8730   -1.1830 H         1 <0>         0.0819
     27 H8          3.7738   -1.8100    1.6949 H         1 <0>         0.0750
     28 H9          4.6144   -2.5890    0.3340 H         1 <0>         0.0839
     29 H10         4.9253   -4.0972   -0.4266 H         1 <0>         0.1417
     30 H11         6.5642   -5.8866   -0.0192 H         1 <0>         0.1611
     31 H12         3.6681   -8.3157    1.6956 H         1 <0>         0.1602
     32 H13         1.9309   -6.6066    1.3570 H         1 <0>         0.1388
@<TRIPOS>BOND
     1    1    6 ar
     2    1    2 ar
     3    1   21 1
     4    2    3 ar
     5    2   22 1
     6    3    4 ar
     7    3   23 1
     8    4   10 1
     9    4    5 ar
    10    5    6 ar
    11    5    7 1
    12    6   24 1
    13    7    8 1
    14    7   25 1
    15    7   26 1
    16    8    9 1
    17    8   27 1
    18    8   28 1
    19    9   14 1
    20    9   10 2
    21   10   11 1
    22   11   12 1
    23   11   13 1
    24   13   14 2
    25   14   15 1
    26   15   20 ar
    27   15   16 ar
    28   16   17 ar
    29   16   29 1
    30   17   18 ar
    31   17   30 1
    32   18   19 ar
    33   19   20 ar
    34   19   31 1
    35   20   32 1
@<TRIPOS>MOLECULE
ZINC00026943
   35    38     0     0     0
SMALL
USER_CHARGES

@<TRIPOS>ATOM
      1 C1         -6.5797    9.7102    4.7871 C.3       1 <0>         0.0246
      2 O1         -5.2576    9.3273    5.1711 O.3       1 <0>        -0.3141
      3 C2         -4.6777    8.3204    4.4665 C.ar      1 <0>         0.1372
      4 C3         -3.3945    7.8996    4.7880 C.ar      1 <0>        -0.1437
      5 C4         -2.8034    6.8778    4.0746 C.ar      1 <0>        -0.0637
      6 C5         -3.4956    6.2678    3.0301 C.ar      1 <0>        -0.0742
      7 C6         -4.7817    6.6961    2.7062 C.ar      1 <0>        -0.0696
      8 C7         -5.3695    7.7150    3.4263 C.ar      1 <0>        -0.2014
      9 C8         -2.8622    5.1686    2.2602 C.2       1 <0>        -0.1326
     10 C9         -1.5571    4.7325    2.5788 C.2       1 <0>         0.1892
     11 N1         -1.0029    3.7606    1.8953 N.2       1 <0>        -0.4480
     12 C10        -1.6573    3.1615    0.8940 C.2       1 <0>         0.2622
     13 C11        -1.3027    2.1283    0.0198 C.2       1 <0>        -0.1726
     14 C12        -2.3856    1.9195   -0.8379 C.2       1 <0>         0.1070
     15 N2         -3.3425    2.7624   -0.5273 N.2       1 <0>        -0.3060
     16 N3         -2.9245    3.5569    0.5461 N.pl3     1 <0>        -0.3068
     17 C13        -3.5344    4.5657    1.2349 C.2       1 <0>         0.1625
     18 C14        -0.0168    1.3870    0.0097 C.2       1 <0>        -0.0386
     19 C15         0.0021   -0.0041    0.0020 C.2       1 <0>        -0.1455
     20 C16         1.1939   -0.6440   -0.0128 C.2       1 <0>        -0.1735
     21 S1          2.3519    0.7141   -0.0166 S.3       1 <0>         0.0348
     22 C17         1.1746    2.0557    0.0019 C.2       1 <0>        -0.1503
     23 H1         -6.9236   10.5219    5.4282 H         1 <0>         0.1035
     24 H2         -6.5743   10.0442    3.7495 H         1 <0>         0.0580
     25 H3         -7.2497    8.8567    4.8906 H         1 <0>         0.0580
     26 H4         -2.8587    8.3724    5.5977 H         1 <0>         0.1387
     27 H5         -1.8049    6.5511    4.3249 H         1 <0>         0.1370
     28 H6         -5.3188    6.2282    1.8945 H         1 <0>         0.1275
     29 H7         -6.3677    8.0445    3.1785 H         1 <0>         0.1342
     30 H8         -1.0145    5.2008    3.3867 H         1 <0>         0.1831
     31 H9         -2.4284    1.1842   -1.6278 H         1 <0>         0.2015
     32 H10        -4.5332    4.8825    0.9730 H         1 <0>         0.1807
     33 H11        -0.9210   -0.5647    0.0075 H         1 <0>         0.1334
     34 H12         1.3936   -1.7053   -0.0204 H         1 <0>         0.1862
     35 H13         1.3568    3.1202    0.0062 H         1 <0>         0.1814
@<TRIPOS>BOND
     1    1    2 1
     2    1   23 1
     3    1   24 1
     4    1   25 1
     5    2    3 1
     6    3    8 ar
     7    3    4 ar
     8    4    5 ar
     9    4   26 1
    10    5    6 ar
    11    5   27 1
    12    6    7 ar
    13    6    9 1
    14    7    8 ar
    15    7   28 1
    16    8   29 1
    17    9   17 2
    18    9   10 1
    19   10   11 2
    20   10   30 1
    21   11   12 1
    22   12   16 1
    23   12   13 2
    24   13   14 1
    25   13   18 1
    26   14   15 2
    27   14   31 1
    28   15   16 1
    29   16   17 1
    30   17   32 1
    31   18   22 2
    32   18   19 1
    33   19   20 2
    34   19   33 1
    35   20   21 1
    36   20   34 1
    37   21   22 1
    38   22   35 1
@<TRIPOS>MOLECULE
ZINC01493842
   44    47     0     0     0
SMALL
USER_CHARGES

@<TRIPOS>ATOM
      1 C1          2.4496    4.0084   -0.1511 C.ar      1 <0>        -0.0863
      2 C2          3.6233    3.2738    0.0006 C.ar      1 <0>        -0.1039
      3 C3          3.6055    1.9100   -0.0048 C.ar      1 <0>        -0.0866
      4 C4          2.3885    1.2398   -0.1654 C.ar      1 <0>        -0.1053
      5 C5          1.1920    1.9874   -0.3201 C.ar      1 <0>        -0.0356
      6 C6          1.2466    3.3871   -0.3098 C.ar      1 <0>        -0.1019
      7 C7         -0.0105    1.2740   -0.4784 C.ar      1 <0>         0.0627
      8 N1          0.0208   -0.0389   -0.4769 N.ar      1 <0>        -0.2082
      9 N2          1.0963   -0.7205   -0.3380 N.ar      1 <0>        -0.3137
     10 C8          2.2878   -0.1700   -0.1814 C.ar      1 <0>         0.3629
     11 N3          3.4169   -0.9601   -0.0362 N.pl3     1 <0>        -0.6410
     12 C9          3.2903   -2.3488    0.0626 C.ar      1 <0>         0.1596
     13 C10         2.1774   -2.9038    0.6815 C.ar      1 <0>        -0.1029
     14 C11         2.0520   -4.2762    0.7721 C.ar      1 <0>        -0.0850
     15 C12         3.0394   -5.0980    0.2577 C.ar      1 <0>        -0.0512
     16 C13         4.1522   -4.5477   -0.3539 C.ar      1 <0>        -0.0879
     17 C14         4.2799   -3.1762   -0.4529 C.ar      1 <0>        -0.1374
     18 Cl1         2.8816   -6.8226    0.3793 Cl        1 <0>        -0.0690
     19 C15        -1.3158    2.0066   -0.6534 C.3       1 <0>        -0.0231
     20 C16        -1.9414    2.2478    0.6962 C.ar      1 <0>        -0.0412
     21 C17        -1.6621    3.4023    1.4109 C.ar      1 <0>        -0.1447
     22 C18        -2.2534    3.5944    2.6491 C.ar      1 <0>         0.1008
     23 N4         -3.0731    2.6975    3.1527 N.ar      1 <0>        -0.4594
     24 C19        -3.3668    1.5792    2.5011 C.ar      1 <0>         0.0756
     25 C20        -2.8135    1.3231    1.2485 C.ar      1 <0>        -0.0938
     26 C21        -4.2955    0.5974    3.1086 C.2       1 <0>         0.5761
     27 O1         -4.5680   -0.4282    2.5165 O.2       1 <0>        -0.5307
     28 N5         -4.8381    0.8418    4.3179 N.am      1 <0>        -0.8352
     29 H1          2.4934    5.0875   -0.1433 H         1 <0>         0.1365
     30 H2          4.5625    3.7924    0.1242 H         1 <0>         0.1355
     31 H3          4.5229    1.3527    0.1142 H         1 <0>         0.1316
     32 H4          0.3440    3.9686   -0.4261 H         1 <0>         0.1409
     33 H5          4.2951   -0.5495   -0.0030 H         1 <0>         0.4199
     34 H6          1.4088   -2.2628    1.0874 H         1 <0>         0.1445
     35 H7          1.1846   -4.7083    1.2489 H         1 <0>         0.1380
     36 H8          4.9213   -5.1915   -0.7545 H         1 <0>         0.1379
     37 H9          5.1482   -2.7473   -0.9309 H         1 <0>         0.1339
     38 H10        -1.1330    2.9620   -1.1452 H         1 <0>         0.1013
     39 H11        -1.9901    1.4065   -1.2645 H         1 <0>         0.1080
     40 H12        -0.9904    4.1450    1.0063 H         1 <0>         0.1407
     41 H13        -2.0380    4.4927    3.2086 H         1 <0>         0.1657
     42 H14        -3.0574    0.4150    0.7174 H         1 <0>         0.1537
     43 H15        -4.6206    1.6605    4.7906 H         1 <0>         0.4116
     44 H16        -5.4460    0.1990    4.7156 H         1 <0>         0.4065
@<TRIPOS>BOND
     1    1    6 ar
     2    1    2 ar
     3    1   29 1
     4    2    3 ar
     5    2   30 1
     6    3    4 ar
     7    3   31 1
     8    4   10 ar
     9    4    5 ar
    10    5    6 ar
    11    5    7 ar
    12    6   32 1
    13    7    8 ar
    14    7   19 1
    15    8    9 ar
    16    9   10 ar
    17   10   11 1
    18   11   12 1
    19   11   33 1
    20   12   17 ar
    21   12   13 ar
    22   13   14 ar
    23   13   34 1
    24   14   15 ar
    25   14   35 1
    26   15   16 ar
    27   15   18 1
    28   16   17 ar
    29   16   36 1
    30   17   37 1
    31   19   20 1
    32   19   38 1
    33   19   39 1
    34   20   25 ar
    35   20   21 ar
    36   21   22 ar
    37   21   40 1
    38   22   23 ar
    39   22   41 1
    40   23   24 ar
    41   24   25 ar
    42   24   26 1
    43   25   42 1
    44   26   27 2
    45   26   28 am
    46   28   43 1
    47   28   44 1
@<TRIPOS>MOLECULE
ZINC01493965
   38    41     0     0     0
SMALL
USER_CHARGES

@<TRIPOS>ATOM
      1 C1          9.8160   -1.9038   -0.7664 C.ar      1 <0>        -0.1369
      2 C2         10.5245   -2.1600    0.3910 C.ar      1 <0>        -0.0874
      3 C3          9.8531   -2.4716    1.5603 C.ar      1 <0>        -0.0525
      4 C4          8.4702   -2.5218    1.5748 C.ar      1 <0>        -0.0855
      5 C5          7.7563   -2.2609    0.4218 C.ar      1 <0>        -0.1046
      6 C6          8.4277   -1.9479   -0.7534 C.ar      1 <0>         0.1646
      7 N1          7.7077   -1.6833   -1.9220 N.pl3     1 <0>        -0.6477
      8 C7          6.4913   -1.0105   -1.8526 C.ar      1 <0>         0.3581
      9 C8          5.6979   -0.8471   -3.0238 C.ar      1 <0>        -0.1011
     10 C9          5.9352   -1.2826   -4.3856 C.2       1 <0>        -0.1411
     11 C10         5.0227   -1.0036   -5.3320 C.2       1 <0>        -0.1406
     12 S1          3.7564   -0.1188   -4.4405 S.3       1 <0>         0.1423
     13 C11         4.4834   -0.1530   -2.8265 C.ar      1 <0>        -0.1379
     14 C12         4.1421    0.3211   -1.5709 C.ar      1 <0>         0.2858
     15 N2          4.9648    0.1064   -0.5564 N.ar      1 <0>        -0.2495
     16 N3          6.0709   -0.5242   -0.7049 N.ar      1 <0>        -0.2743
     17 O1          2.9767    0.9924   -1.3819 O.3       1 <0>        -0.2911
     18 C13         2.6956    1.4434   -0.0554 C.3       1 <0>         0.1089
     19 C14         1.3708    2.1616   -0.0391 C.ar      1 <0>        -0.0545
     20 C15         0.1923    1.4716    0.2006 C.ar      1 <0>        -0.1481
     21 C16        -1.0045    2.1628    0.2017 C.ar      1 <0>         0.0990
     22 N4         -1.0321    3.4639   -0.0110 N.ar      1 <0>        -0.4767
     23 C17         0.0686    4.1524   -0.2420 C.ar      1 <0>         0.0990
     24 C18         1.3014    3.5280   -0.2640 C.ar      1 <0>        -0.1481
     25 Cl1        10.7472   -2.7996    3.0117 Cl        1 <0>        -0.0698
     26 H1         10.3407   -1.6654   -1.6797 H         1 <0>         0.1341
     27 H2         11.6038   -2.1212    0.3827 H         1 <0>         0.1374
     28 H3          7.9487   -2.7649    2.4888 H         1 <0>         0.1370
     29 H4          6.6771   -2.2999    0.4338 H         1 <0>         0.1397
     30 H5          8.0559   -1.9686   -2.7812 H         1 <0>         0.4215
     31 H6          6.8349   -1.8246   -4.6370 H         1 <0>         0.1475
     32 H7          5.0499   -1.2549   -6.3820 H         1 <0>         0.2027
     33 H8          3.4818    2.1240    0.2713 H         1 <0>         0.0859
     34 H9          2.6531    0.5874    0.6181 H         1 <0>         0.0860
     35 H10         0.2089    0.4067    0.3798 H         1 <0>         0.1383
     36 H11        -1.9273    1.6319    0.3831 H         1 <0>         0.1606
     37 H12         0.0061    5.2164   -0.4162 H         1 <0>         0.1606
     38 H13         2.1993    4.0971   -0.4544 H         1 <0>         0.1383
@<TRIPOS>BOND
     1    1    6 ar
     2    1    2 ar
     3    1   26 1
     4    2    3 ar
     5    2   27 1
     6    3    4 ar
     7    3   25 1
     8    4    5 ar
     9    4   28 1
    10    5    6 ar
    11    5   29 1
    12    6    7 1
    13    7    8 1
    14    7   30 1
    15    8   16 ar
    16    8    9 ar
    17    9   13 ar
    18    9   10 1
    19   10   11 2
    20   10   31 1
    21   11   12 1
    22   11   32 1
    23   12   13 1
    24   13   14 ar
    25   14   15 ar
    26   14   17 1
    27   15   16 ar
    28   17   18 1
    29   18   19 1
    30   18   33 1
    31   18   34 1
    32   19   24 ar
    33   19   20 ar
    34   20   21 ar
    35   20   35 1
    36   21   22 ar
    37   21   36 1
    38   22   23 ar
    39   23   24 ar
    40   23   37 1
    41   24   38 1
@<TRIPOS>MOLECULE
ZINC01494208
   43    46     0     0     0
SMALL
USER_CHARGES

@<TRIPOS>ATOM
      1 C1         -2.6947    6.0887    8.5575 C.ar      1 <0>        -0.1547
      2 C2         -2.5471    7.4048    8.9527 C.ar      1 <0>         0.1002
      3 N1         -3.5741    8.2319    8.9407 N.ar      1 <0>        -0.4785
      4 C3         -4.7725    7.8438    8.5504 C.ar      1 <0>         0.1000
      5 C4         -4.9948    6.5439    8.1369 C.ar      1 <0>        -0.1550
      6 C5         -3.9389    5.6454    8.1358 C.ar      1 <0>        -0.0675
      7 C6         -4.1402    4.2191    7.6927 C.3       1 <0>         0.1616
      8 N2         -3.9002    4.1171    6.2512 N.am      1 <0>        -0.7296
      9 C7         -4.0228    2.9273    5.6301 C.2       1 <0>         0.5922
     10 O1         -4.3328    1.9376    6.2669 O.2       1 <0>        -0.5207
     11 C8         -3.7825    2.8251    4.1862 C.2       1 <0>        -0.0588
     12 C9         -3.8776    1.6869    3.4374 C.2       1 <0>        -0.0645
     13 C10        -3.5626    2.0374    2.1080 C.2       1 <0>        -0.1182
     14 C11        -3.2943    3.3898    2.0958 C.2       1 <0>         0.0687
     15 N3         -3.4282    3.8612    3.3519 N.pl3     1 <0>        -0.5305
     16 H1         -3.2959    4.7828    3.6242 H         1 <0>         0.4194
     17 C12        -3.5318    1.1262    0.9440 C.2       1 <0>         0.1757
     18 C13        -2.5364    1.0524   -0.0206 C.2       1 <0>        -0.2143
     19 C14        -2.9173    0.0571   -0.9387 C.2       1 <0>         0.0845
     20 N4         -4.0630   -0.4417   -0.5585 N.pl3     1 <0>        -0.4251
     21 N5         -4.4748    0.2002    0.6151 N.2       1 <0>        -0.3085
     22 H2         -4.5655   -1.1662   -1.0304 H         1 <0>         0.4530
     23 C15        -1.3012    1.8707   -0.0734 C.ar      1 <0>         0.0334
     24 C16        -1.0059    2.6187   -1.2120 C.ar      1 <0>        -0.1024
     25 C17         0.1433    3.3838   -1.2537 C.ar      1 <0>        -0.0214
     26 C18         1.0038    3.4044   -0.1696 C.ar      1 <0>        -0.1096
     27 C19         0.7179    2.6593    0.9614 C.ar      1 <0>        -0.0209
     28 C20        -0.4285    1.8905    1.0134 C.ar      1 <0>        -0.0897
     29 Cl1         1.8016    2.6917    2.3173 Cl        1 <0>        -0.0566
     30 Cl2         0.5090    4.3216   -2.6681 Cl        1 <0>        -0.0570
     31 H3         -1.8509    5.4149    8.5739 H         1 <0>         0.1384
     32 H4         -1.5805    7.7588    9.2794 H         1 <0>         0.1595
     33 H5         -5.5897    8.5499    8.5541 H         1 <0>         0.1595
     34 H6         -5.9786    6.2320    7.8190 H         1 <0>         0.1383
     35 H7         -5.1621    3.9108    7.9137 H         1 <0>         0.0856
     36 H8         -3.4425    3.5717    8.2239 H         1 <0>         0.0856
     37 H9         -3.6531    4.9059    5.7435 H         1 <0>         0.3957
     38 H10        -4.1417    0.7030    3.7962 H         1 <0>         0.1531
     39 H11        -3.0234    3.9725    1.2278 H         1 <0>         0.1764
     40 H12        -2.3567   -0.2439   -1.8114 H         1 <0>         0.1803
     41 H13        -1.6768    2.6035   -2.0582 H         1 <0>         0.1398
     42 H14         1.9011    4.0043   -0.2062 H         1 <0>         0.1426
     43 H15        -0.6507    1.3095    1.8962 H         1 <0>         0.1400
@<TRIPOS>BOND
     1    1    6 ar
     2    1    2 ar
     3    1   31 1
     4    2    3 ar
     5    2   32 1
     6    3    4 ar
     7    4    5 ar
     8    4   33 1
     9    5    6 ar
    10    5   34 1
    11    6    7 1
    12    7    8 1
    13    7   35 1
    14    7   36 1
    15    8    9 am
    16    8   37 1
    17    9   10 2
    18    9   11 1
    19   11   15 1
    20   11   12 2
    21   12   13 1
    22   12   38 1
    23   13   14 2
    24   13   17 1
    25   14   15 1
    26   14   39 1
    27   15   16 1
    28   17   18 1
    29   17   21 2
    30   18   23 1
    31   18   19 2
    32   19   40 1
    33   19   20 1
    34   20   22 1
    35   20   21 1
    36   23   28 ar
    37   23   24 ar
    38   24   25 ar
    39   24   41 1
    40   25   26 ar
    41   25   30 1
    42   26   27 ar
    43   26   42 1
    44   27   28 ar
    45   27   29 1
    46   28   43 1
@<TRIPOS>MOLECULE
ZINC01494208
   43    46     0     0     0
SMALL
USER_CHARGES

@<TRIPOS>ATOM
      1 C1         -2.6947    6.0887    8.5575 C.ar      1 <0>        -0.1547
      2 C2         -2.5471    7.4048    8.9527 C.ar      1 <0>         0.1002
      3 N1         -3.5741    8.2319    8.9407 N.ar      1 <0>        -0.4785
      4 C3         -4.7725    7.8438    8.5504 C.ar      1 <0>         0.1000
      5 C4         -4.9948    6.5439    8.1369 C.ar      1 <0>        -0.1550
      6 C5         -3.9389    5.6454    8.1358 C.ar      1 <0>        -0.0675
      7 C6         -4.1402    4.2191    7.6927 C.3       1 <0>         0.1616
      8 N2         -3.9002    4.1171    6.2512 N.am      1 <0>        -0.7296
      9 C7         -4.0228    2.9273    5.6301 C.2       1 <0>         0.5922
     10 O1         -4.3328    1.9376    6.2669 O.2       1 <0>        -0.5207
     11 C8         -3.7825    2.8251    4.1862 C.2       1 <0>        -0.0588
     12 C9         -3.8776    1.6869    3.4374 C.2       1 <0>        -0.0645
     13 C10        -3.5626    2.0374    2.1080 C.2       1 <0>        -0.1182
     14 C11        -3.2943    3.3898    2.0958 C.2       1 <0>         0.0687
     15 N3         -3.4282    3.8612    3.3519 N.pl3     1 <0>        -0.5305
     16 H1         -3.2959    4.7828    3.6242 H         1 <0>         0.4194
     17 C12        -3.5318    1.1262    0.9440 C.2       1 <0>         0.1757
     18 C13        -2.5364    1.0524   -0.0206 C.2       1 <0>        -0.2143
     19 C14        -2.9173    0.0571   -0.9387 C.2       1 <0>         0.0845
     20 N4         -4.0630   -0.4417   -0.5585 N.pl3     1 <0>        -0.4251
     21 N5         -4.4748    0.2002    0.6151 N.2       1 <0>        -0.3085
     22 H2         -4.5655   -1.1662   -1.0304 H         1 <0>         0.4530
     23 C15        -1.3012    1.8707   -0.0734 C.ar      1 <0>         0.0334
     24 C16        -1.0059    2.6187   -1.2120 C.ar      1 <0>        -0.1024
     25 C17         0.1433    3.3838   -1.2537 C.ar      1 <0>        -0.0214
     26 C18         1.0038    3.4044   -0.1696 C.ar      1 <0>        -0.1096
     27 C19         0.7179    2.6593    0.9614 C.ar      1 <0>        -0.0209
     28 C20        -0.4285    1.8905    1.0134 C.ar      1 <0>        -0.0897
     29 Cl1         1.8016    2.6917    2.3173 Cl        1 <0>        -0.0566
     30 Cl2         0.5090    4.3216   -2.6681 Cl        1 <0>        -0.0570
     31 H3         -1.8509    5.4149    8.5739 H         1 <0>         0.1384
     32 H4         -1.5805    7.7588    9.2794 H         1 <0>         0.1595
     33 H5         -5.5897    8.5499    8.5541 H         1 <0>         0.1595
     34 H6         -5.9786    6.2320    7.8190 H         1 <0>         0.1383
     35 H7         -5.1621    3.9108    7.9137 H         1 <0>         0.0856
     36 H8         -3.4425    3.5717    8.2239 H         1 <0>         0.0856
     37 H9         -3.6531    4.9059    5.7435 H         1 <0>         0.3957
     38 H10        -4.1417    0.7030    3.7962 H         1 <0>         0.1531
     39 H11        -3.0234    3.9725    1.2278 H         1 <0>         0.1764
     40 H12        -2.3567   -0.2439   -1.8114 H         1 <0>         0.1803
     41 H13        -1.6768    2.6035   -2.0582 H         1 <0>         0.1398
     42 H14         1.9011    4.0043   -0.2062 H         1 <0>         0.1426
     43 H15        -0.6507    1.3095    1.8962 H         1 <0>         0.1400
@<TRIPOS>BOND
     1    1    6 ar
     2    1    2 ar
     3    1   31 1
     4    2    3 ar
     5    2   32 1
     6    3    4 ar
     7    4    5 ar
     8    4   33 1
     9    5    6 ar
    10    5   34 1
    11    6    7 1
    12    7    8 1
    13    7   35 1
    14    7   36 1
    15    8    9 am
    16    8   37 1
    17    9   10 2
    18    9   11 1
    19   11   15 1
    20   11   12 2
    21   12   13 1
    22   12   38 1
    23   13   14 2
    24   13   17 1
    25   14   15 1
    26   14   39 1
    27   15   16 1
    28   17   18 1
    29   17   21 2
    30   18   23 1
    31   18   19 2
    32   19   40 1
    33   19   20 1
    34   20   22 1
    35   20   21 1
    36   23   28 ar
    37   23   24 ar
    38   24   25 ar
    39   24   41 1
    40   25   26 ar
    41   25   30 1
    42   26   27 ar
    43   26   42 1
    44   27   28 ar
    45   27   29 1
    46   28   43 1
@<TRIPOS>MOLECULE
ZINC01494651
   51    54     0     0     0
SMALL
USER_CHARGES

@<TRIPOS>ATOM
      1 C1         -0.0575    0.9465   -0.0505 C.3       1 <0>        -0.1629
      2 C2         -0.6650    1.6260    1.1783 C.3       1 <0>         0.0965
      3 N1         -0.6105    3.0802    1.0091 N.am      1 <0>        -0.5034
      4 C3         -1.6581    3.7341    0.4114 C.ar      1 <0>         0.4645
      5 C4         -1.6213    5.1350    0.2407 C.ar      1 <0>        -0.2722
      6 C5         -0.5030    5.8766    0.6850 C.2       1 <0>         0.0183
      7 C6          0.5377    5.2155    1.2804 C.2       1 <0>        -0.1527
      8 C7          0.4653    3.7624    1.4469 C.2       1 <0>         0.5507
      9 O1          1.3846    3.1669    1.9799 O.2       1 <0>        -0.4979
     10 C8          1.7240    5.9643    1.7573 C.ar      1 <0>         0.0473
     11 C9          2.9698    5.7466    1.1711 C.ar      1 <0>        -0.1565
     12 C10         4.0758    6.4520    1.6163 C.ar      1 <0>         0.1679
     13 C11         3.9465    7.3669    2.6512 C.ar      1 <0>        -0.2917
     14 C12         2.7093    7.5820    3.2409 C.ar      1 <0>         0.1667
     15 C13         1.5980    6.8841    2.7972 C.ar      1 <0>        -0.1706
     16 O2          2.5874    8.4789    4.2546 O.3       1 <0>        -0.3125
     17 C14         3.7740    9.1631    4.6617 C.3       1 <0>         0.0260
     18 O3          5.2898    6.2441    1.0419 O.3       1 <0>        -0.3121
     19 C15         6.3880    7.0018    1.5537 C.3       1 <0>         0.0260
     20 C16        -2.7134    5.7648   -0.3750 C.ar      1 <0>         0.2626
     21 N2         -3.7307    5.0223   -0.7695 N.ar      1 <0>        -0.5685
     22 C17        -3.7308    3.7058   -0.5924 C.ar      1 <0>         0.6060
     23 N3         -2.7238    3.0670   -0.0169 N.ar      1 <0>        -0.5906
     24 N4         -4.8222    2.9759   -1.0246 N.pl3     1 <0>        -0.6253
     25 C18        -5.9440    3.6319   -1.5281 C.ar      1 <0>         0.2035
     26 C19        -6.3298    4.8753   -1.0286 C.ar      1 <0>        -0.1665
     27 C20        -7.4433    5.4938   -1.5576 C.ar      1 <0>         0.1181
     28 N5         -8.1455    4.9189   -2.5159 N.ar      1 <0>        -0.4970
     29 C21        -7.8158    3.7409   -3.0114 C.ar      1 <0>         0.1207
     30 C22        -6.7132    3.0592   -2.5405 C.ar      1 <0>        -0.2013
     31 H1         -0.0981   -0.1355    0.0753 H         1 <0>         0.0774
     32 H2          0.9802    1.2604   -0.1635 H         1 <0>         0.0612
     33 H3         -0.6217    1.2304   -0.9389 H         1 <0>         0.0594
     34 H4         -1.7027    1.3121    1.2912 H         1 <0>         0.1006
     35 H5         -0.1008    1.3422    2.0666 H         1 <0>         0.0988
     36 H6         -0.4698    6.9484    0.5565 H         1 <0>         0.1542
     37 H7          3.0719    5.0317    0.3680 H         1 <0>         0.1317
     38 H8          4.8112    7.9127    2.9988 H         1 <0>         0.1359
     39 H9          0.6351    7.0520    3.2567 H         1 <0>         0.1349
     40 H10         4.5138    8.4376    4.9999 H         1 <0>         0.0558
     41 H11         4.1759    9.7261    3.8194 H         1 <0>         0.0560
     42 H12         3.5374    9.8475    5.4764 H         1 <0>         0.1032
     43 H13         7.2951    6.7403    1.0088 H         1 <0>         0.1031
     44 H14         6.1841    8.0655    1.4309 H         1 <0>         0.0559
     45 H15         6.5224    6.7774    2.6119 H         1 <0>         0.0559
     46 H16        -2.7213    6.8346   -0.5232 H         1 <0>         0.1900
     47 H17        -4.8073    2.0072   -0.9776 H         1 <0>         0.4293
     48 H18        -5.7623    5.3492   -0.2414 H         1 <0>         0.1461
     49 H19        -7.7471    6.4589   -1.1797 H         1 <0>         0.1595
     50 H20        -8.4173    3.3050   -3.7953 H         1 <0>         0.1602
     51 H21        -6.4494    2.0952   -2.9499 H         1 <0>         0.1377
@<TRIPOS>BOND
     1    1    2 1
     2    1   31 1
     3    1   32 1
     4    1   33 1
     5    2    3 1
     6    2   34 1
     7    2   35 1
     8    3    8 am
     9    3    4 1
    10    4   23 ar
    11    4    5 ar
    12    5    6 1
    13    5   20 ar
    14    6    7 2
    15    6   36 1
    16    7    8 1
    17    7   10 1
    18    8    9 2
    19   10   15 ar
    20   10   11 ar
    21   11   12 ar
    22   11   37 1
    23   12   13 ar
    24   12   18 1
    25   13   14 ar
    26   13   38 1
    27   14   15 ar
    28   14   16 1
    29   15   39 1
    30   16   17 1
    31   17   40 1
    32   17   41 1
    33   17   42 1
    34   18   19 1
    35   19   43 1
    36   19   44 1
    37   19   45 1
    38   20   21 ar
    39   20   46 1
    40   21   22 ar
    41   22   23 ar
    42   22   24 1
    43   24   25 1
    44   24   47 1
    45   25   30 ar
    46   25   26 ar
    47   26   27 ar
    48   26   48 1
    49   27   28 ar
    50   27   49 1
    51   28   29 ar
    52   29   30 ar
    53   29   50 1
    54   30   51 1
@<TRIPOS>MOLECULE
ZINC01895097
   43    45     0     0     0
SMALL
USER_CHARGES

@<TRIPOS>ATOM
      1 C1          2.6192    8.9970   -3.3123 C.3       1 <0>         0.0306
      2 O1          2.3300    7.6304   -3.0111 O.3       1 <0>        -0.3850
      3 C2          1.4999    7.4517   -1.8617 C.3       1 <0>         0.0622
      4 C3          1.2571    5.9581   -1.6351 C.3       1 <0>         0.0540
      5 O2          2.4933    5.3183   -1.3119 O.3       1 <0>        -0.2854
      6 C4          2.4529    3.9805   -1.0791 C.ar      1 <0>         0.1702
      7 C5          1.2521    3.3106   -1.1613 C.ar      1 <0>        -0.1861
      8 C6          1.2134    1.9319   -0.9204 C.ar      1 <0>         0.2031
      9 C7          2.4109    1.2477   -0.5954 C.ar      1 <0>        -0.1795
     10 C8          3.6183    1.9519   -0.5181 C.ar      1 <0>        -0.1510
     11 C9          3.6336    3.2968   -0.7573 C.ar      1 <0>         0.1157
     12 O3          4.8070    3.9798   -0.6821 O.3       1 <0>        -0.2976
     13 C10         5.9755    3.2274   -0.3496 C.3       1 <0>         0.0209
     14 C11         2.3401   -0.1455   -0.3564 C.ar      1 <0>         0.4633
     15 N1          1.1571   -0.7388   -0.4490 N.ar      1 <0>        -0.5809
     16 C12         0.0642   -0.0581   -0.7557 C.ar      1 <0>         0.3396
     17 N2          0.0693    1.2330   -0.9874 N.ar      1 <0>        -0.5369
     18 N3          3.4716   -0.8676   -0.0353 N.pl3     1 <0>        -0.6321
     19 C13         3.4070   -2.2623    0.0639 C.ar      1 <0>         0.1340
     20 C14         2.3544   -2.9532   -0.5209 C.ar      1 <0>        -0.0987
     21 C15         2.2928   -4.3297   -0.4216 C.ar      1 <0>        -0.0925
     22 C16         3.2789   -5.0212    0.2600 C.ar      1 <0>        -0.0318
     23 C17         4.3297   -4.3366    0.8449 C.ar      1 <0>        -0.1216
     24 C18         4.4002   -2.9592    0.7436 C.ar      1 <0>         0.0721
     25 F1          5.4292   -2.2911    1.3093 F         1 <0>        -0.1330
     26 Cl1         3.1971   -6.7509    0.3821 Cl        1 <0>        -0.0558
     27 H1          3.1360    9.4536   -2.4682 H         1 <0>         0.0437
     28 H2          3.2536    9.0475   -4.1973 H         1 <0>         0.0885
     29 H3          1.6887    9.5322   -3.5013 H         1 <0>         0.0427
     30 H4          0.5461    7.9548   -2.0205 H         1 <0>         0.0759
     31 H5          1.9935    7.8762   -0.9875 H         1 <0>         0.0638
     32 H6          0.8451    5.5154   -2.5419 H         1 <0>         0.0792
     33 H7          0.5533    5.8250   -0.8135 H         1 <0>         0.0856
     34 H8          0.3472    3.8449   -1.4101 H         1 <0>         0.1563
     35 H9          4.5333    1.4344   -0.2703 H         1 <0>         0.1393
     36 H10         5.8432    2.7640    0.6281 H         1 <0>         0.0577
     37 H11         6.1349    2.4533   -1.1001 H         1 <0>         0.0579
     38 H12         6.8396    3.8912   -0.3230 H         1 <0>         0.1077
     39 H13        -0.8738   -0.5897   -0.8184 H         1 <0>         0.2009
     40 H14         4.3116   -0.4086    0.1217 H         1 <0>         0.4237
     41 H15         1.5843   -2.4149   -1.0534 H         1 <0>         0.1835
     42 H16         1.4740   -4.8670   -0.8769 H         1 <0>         0.1455
     43 H17         5.0977   -4.8788    1.3765 H         1 <0>         0.1504
@<TRIPOS>BOND
     1    1    2 1
     2    1   27 1
     3    1   28 1
     4    1   29 1
     5    2    3 1
     6    3    4 1
     7    3   30 1
     8    3   31 1
     9    4    5 1
    10    4   32 1
    11    4   33 1
    12    5    6 1
    13    6   11 ar
    14    6    7 ar
    15    7    8 ar
    16    7   34 1
    17    8   17 ar
    18    8    9 ar
    19    9   10 ar
    20    9   14 ar
    21   10   11 ar
    22   10   35 1
    23   11   12 1
    24   12   13 1
    25   13   36 1
    26   13   37 1
    27   13   38 1
    28   14   15 ar
    29   14   18 1
    30   15   16 ar
    31   16   17 ar
    32   16   39 1
    33   18   19 1
    34   18   40 1
    35   19   24 ar
    36   19   20 ar
    37   20   21 ar
    38   20   41 1
    39   21   22 ar
    40   21   42 1
    41   22   23 ar
    42   22   26 1
    43   23   24 ar
    44   23   43 1
    45   24   25 1
@<TRIPOS>MOLECULE
ZINC01895146
   44    46     0     0     0
SMALL
USER_CHARGES

@<TRIPOS>ATOM
      1 C1          2.6162    8.9951   -3.3176 C.3       1 <0>         0.0307
      2 O1          2.3270    7.6288   -3.0147 O.3       1 <0>        -0.3851
      3 C2          1.4993    7.4513   -1.8634 C.3       1 <0>         0.0622
      4 C3          1.2564    5.9581   -1.6353 C.3       1 <0>         0.0539
      5 O2          2.4929    5.3179   -1.3141 O.3       1 <0>        -0.2853
      6 C4          2.4525    3.9803   -1.0802 C.ar      1 <0>         0.1705
      7 C5          1.2513    3.3109   -1.1594 C.ar      1 <0>        -0.1859
      8 C6          1.2127    1.9322   -0.9187 C.ar      1 <0>         0.2030
      9 C7          2.4105    1.2478   -0.5952 C.ar      1 <0>        -0.1785
     10 C8          3.6183    1.9516   -0.5206 C.ar      1 <0>        -0.1515
     11 C9          3.6335    3.2964   -0.7604 C.ar      1 <0>         0.1166
     12 O3          4.8073    3.9791   -0.6877 O.3       1 <0>        -0.2974
     13 C10         5.9762    3.2265   -0.3570 C.3       1 <0>         0.0208
     14 C11         2.3397   -0.1453   -0.3555 C.ar      1 <0>         0.4624
     15 N1          1.1563   -0.7382   -0.4456 N.ar      1 <0>        -0.5807
     16 C12         0.0631   -0.0574   -0.7505 C.ar      1 <0>         0.3395
     17 N2          0.0682    1.2336   -0.9831 N.ar      1 <0>        -0.5355
     18 N3          3.4716   -0.8676   -0.0362 N.pl3     1 <0>        -0.6313
     19 C13         3.4071   -2.2622    0.0626 C.ar      1 <0>         0.1514
     20 C14         2.3543   -2.9523   -0.5223 C.ar      1 <0>        -0.1277
     21 C15         2.2959   -4.3335   -0.4273 C.ar      1 <0>         0.1371
     22 C16         3.2836   -5.0242    0.2621 C.ar      1 <0>        -0.0619
     23 C17         4.3294   -4.3359    0.8496 C.ar      1 <0>        -0.1062
     24 C18         4.3945   -2.9578    0.7517 C.ar      1 <0>         0.0637
     25 F1          5.4172   -2.2874    1.3261 F         1 <0>        -0.1311
     26 Cl1         3.2053   -6.7539    0.3871 Cl        1 <0>        -0.0426
     27 O4          1.2687   -5.0118   -1.0047 O.3       1 <0>        -0.4800
     28 H1          3.1350    9.4521   -2.4749 H         1 <0>         0.0437
     29 H2          3.2487    9.0447   -4.2039 H         1 <0>         0.0886
     30 H3          1.6855    9.5305   -3.5050 H         1 <0>         0.0427
     31 H4          0.5454    7.9547   -2.0207 H         1 <0>         0.0760
     32 H5          1.9949    7.8764   -0.9906 H         1 <0>         0.0638
     33 H6          0.8422    5.5148   -2.5408 H         1 <0>         0.0793
     34 H7          0.5542    5.8258   -0.8121 H         1 <0>         0.0856
     35 H8          0.3458    3.8456   -1.4057 H         1 <0>         0.1566
     36 H9          4.5336    1.4340   -0.2742 H         1 <0>         0.1396
     37 H10         6.1339    2.4519   -1.1076 H         1 <0>         0.0581
     38 H11         6.8406    3.8900   -0.3324 H         1 <0>         0.1078
     39 H12         5.8456    2.7635    0.6211 H         1 <0>         0.0578
     40 H13        -0.8753   -0.5886   -0.8109 H         1 <0>         0.2009
     41 H14         4.3119   -0.4087    0.1198 H         1 <0>         0.4253
     42 H15         1.5840   -2.4138   -1.0542 H         1 <0>         0.1897
     43 H16         5.0965   -4.8753    1.3854 H         1 <0>         0.1553
     44 H17         0.5034   -5.1336   -0.4263 H         1 <0>         0.3981
@<TRIPOS>BOND
     1    1    2 1
     2    1   28 1
     3    1   29 1
     4    1   30 1
     5    2    3 1
     6    3    4 1
     7    3   31 1
     8    3   32 1
     9    4    5 1
    10    4   33 1
    11    4   34 1
    12    5    6 1
    13    6   11 ar
    14    6    7 ar
    15    7    8 ar
    16    7   35 1
    17    8   17 ar
    18    8    9 ar
    19    9   10 ar
    20    9   14 ar
    21   10   11 ar
    22   10   36 1
    23   11   12 1
    24   12   13 1
    25   13   37 1
    26   13   38 1
    27   13   39 1
    28   14   15 ar
    29   14   18 1
    30   15   16 ar
    31   16   17 ar
    32   16   40 1
    33   18   19 1
    34   18   41 1
    35   19   24 ar
    36   19   20 ar
    37   20   21 ar
    38   20   42 1
    39   21   22 ar
    40   21   27 1
    41   22   23 ar
    42   22   26 1
    43   23   24 ar
    44   23   43 1
    45   24   25 1
    46   27   44 1
@<TRIPOS>MOLECULE
ZINC01895417
   44    46     0     0     0
SMALL
USER_CHARGES

@<TRIPOS>ATOM
      1 C1         -2.7075    1.0167   -2.4881 C.3       1 <0>         0.0307
      2 O1         -1.8536    0.8137   -1.3605 O.3       1 <0>        -0.3851
      3 C2         -1.6569   -0.5601   -1.0202 C.3       1 <0>         0.0624
      4 C3         -0.7315   -0.6573    0.1944 C.3       1 <0>         0.0532
      5 O2         -1.3736   -0.0746    1.3303 O.3       1 <0>        -0.2869
      6 C4         -0.6817   -0.0792    2.4998 C.ar      1 <0>         0.1582
      7 C5          0.5683   -0.6272    2.5401 C.ar      1 <0>        -0.1693
      8 C6          1.2857   -0.6335    3.7464 C.ar      1 <0>         0.1171
      9 C7          0.6955   -0.0681    4.9054 C.ar      1 <0>        -0.1027
     10 C8         -0.5874    0.4872    4.8366 C.ar      1 <0>        -0.1774
     11 C9         -1.2595    0.4841    3.6469 C.ar      1 <0>         0.1404
     12 O3         -2.5032    1.0280    3.5757 O.3       1 <0>        -0.2951
     13 C10        -3.0371    1.5860    4.7781 C.3       1 <0>         0.0205
     14 C11         1.4410   -0.0891    6.1080 C.ar      1 <0>         0.2181
     15 C12         2.7024   -0.6641    6.0637 C.ar      1 <0>        -0.0554
     16 N1          3.1702   -1.1675    4.9330 N.ar      1 <0>        -0.1827
     17 N2          2.5123   -1.1601    3.8304 N.ar      1 <0>        -0.2472
     18 N3          0.9310    0.4448    7.2838 N.pl3     1 <0>        -0.6523
     19 C13         1.7350    0.5151    8.4267 C.ar      1 <0>         0.1439
     20 C14         3.0569    0.9257    8.3223 C.ar      1 <0>        -0.1392
     21 C15         3.8505    0.9947    9.4561 C.ar      1 <0>         0.1424
     22 C16         3.3232    0.6533   10.6943 C.ar      1 <0>        -0.0535
     23 C17         2.0062    0.2437   10.7981 C.ar      1 <0>        -0.1034
     24 C18         1.2092    0.1790    9.6696 C.ar      1 <0>         0.0815
     25 F1         -0.0785   -0.2159    9.7739 F         1 <0>        -0.1244
     26 Cl1         4.3184    0.7401   12.1140 Cl        1 <0>        -0.0331
     27 O4          5.1454    1.3971    9.3561 O.3       1 <0>        -0.4772
     28 H1         -2.8060    2.0849   -2.6817 H         1 <0>         0.0883
     29 H2         -2.2778    0.5272   -3.3621 H         1 <0>         0.0427
     30 H3         -3.6901    0.5929   -2.2807 H         1 <0>         0.0435
     31 H4         -1.2054   -1.0824   -1.8637 H         1 <0>         0.0761
     32 H5         -2.6177   -1.0167   -0.7823 H         1 <0>         0.0636
     33 H6         -0.5102   -1.7047    0.3997 H         1 <0>         0.0862
     34 H7          0.1962   -0.1236   -0.0121 H         1 <0>         0.0798
     35 H8          1.0030   -1.0533    1.6480 H         1 <0>         0.1587
     36 H9         -1.0408    0.9193    5.7164 H         1 <0>         0.1410
     37 H10        -3.0997    0.8109    5.5419 H         1 <0>         0.0587
     38 H11        -2.3863    2.3879    5.1267 H         1 <0>         0.0585
     39 H12        -4.0325    1.9849    4.5828 H         1 <0>         0.1085
     40 H13         3.3066   -0.7016    6.9581 H         1 <0>         0.1737
     41 H14         0.0173    0.7691    7.3130 H         1 <0>         0.4190
     42 H15         3.4663    1.1907    7.3587 H         1 <0>         0.1584
     43 H16         1.5985   -0.0220   11.7622 H         1 <0>         0.1593
     44 H17         5.2692    2.3513    9.4517 H         1 <0>         0.4006
@<TRIPOS>BOND
     1    1    2 1
     2    1   28 1
     3    1   29 1
     4    1   30 1
     5    2    3 1
     6    3    4 1
     7    3   31 1
     8    3   32 1
     9    4    5 1
    10    4   33 1
    11    4   34 1
    12    5    6 1
    13    6   11 ar
    14    6    7 ar
    15    7    8 ar
    16    7   35 1
    17    8   17 ar
    18    8    9 ar
    19    9   10 ar
    20    9   14 ar
    21   10   11 ar
    22   10   36 1
    23   11   12 1
    24   12   13 1
    25   13   37 1
    26   13   38 1
    27   13   39 1
    28   14   15 ar
    29   14   18 1
    30   15   16 ar
    31   15   40 1
    32   16   17 ar
    33   18   19 1
    34   18   41 1
    35   19   24 ar
    36   19   20 ar
    37   20   21 ar
    38   20   42 1
    39   21   22 ar
    40   21   27 1
    41   22   23 ar
    42   22   26 1
    43   23   24 ar
    44   23   43 1
    45   24   25 1
    46   27   44 1
@<TRIPOS>MOLECULE
ZINC01907301
   33    35     0     0     0
SMALL
USER_CHARGES

@<TRIPOS>ATOM
      1 C1         -0.1208    2.6390    0.0805 C.3       1 <0>        -0.0935
      2 C2         -0.7887    2.1151    1.3257 C.2       1 <0>        -0.0656
      3 C3         -0.2102    1.9899    2.5879 C.2       1 <0>        -0.1984
      4 C4         -1.1463    1.4792    3.4290 C.2       1 <0>         0.0602
      5 N1         -2.2924    1.2779    2.7452 N.pl3     1 <0>        -0.5367
      6 H1         -3.1155    0.9209    3.1139 H         1 <0>         0.4125
      7 C5         -2.1008    1.6702    1.4364 C.2       1 <0>        -0.0214
      8 C6         -3.0548    1.6254    0.4053 C.2       1 <0>         0.1423
      9 C7         -4.3618    2.0293    0.6500 C.2       1 <0>        -0.2594
     10 C8         -4.8823    2.7098    1.8516 C.2       1 <0>         0.1665
     11 N2         -6.1609    2.9076    1.6642 N.2       1 <0>        -0.2062
     12 N3         -6.5721    2.4085    0.4287 N.am      1 <0>        -0.5600
     13 C9         -5.5269    1.8664   -0.2273 C.2       1 <0>         0.5346
     14 O1         -5.5457    1.3442   -1.3294 O.2       1 <0>        -0.5027
     15 C10        -4.0999    3.1001    3.0472 C.ar      1 <0>         0.1410
     16 C11        -4.4838    2.6524    4.3126 C.ar      1 <0>         0.0663
     17 N4         -3.7828    3.0030    5.3740 N.ar      1 <0>        -0.4256
     18 C12        -2.7187    3.7767    5.2402 C.ar      1 <0>         0.0569
     19 C13        -2.3346    4.2233    3.9878 C.ar      1 <0>         0.0710
     20 N5         -3.0258    3.8740    2.9185 N.ar      1 <0>        -0.3954
     21 C14        -0.9384    1.1845    4.8922 C.3       1 <0>        -0.0982
     22 H2          0.3475    1.8134   -0.4554 H         1 <0>         0.0724
     23 H3          0.6386    3.3707    0.3560 H         1 <0>         0.0719
     24 H4         -0.8656    3.1118   -0.5597 H         1 <0>         0.0657
     25 H5          0.8038    2.2530    2.8507 H         1 <0>         0.1439
     26 H6         -2.7722    1.2772   -0.5771 H         1 <0>         0.1588
     27 H7         -7.4801    2.4466    0.0897 H         1 <0>         0.4435
     28 H8         -5.3529    2.0208    4.4225 H         1 <0>         0.1721
     29 H9         -2.1475    4.0614    6.1115 H         1 <0>         0.1754
     30 H10        -1.4647    4.8550    3.8845 H         1 <0>         0.1756
     31 H11        -1.1005    2.0929    5.4724 H         1 <0>         0.0789
     32 H12        -1.6443    0.4181    5.2123 H         1 <0>         0.0661
     33 H13         0.0799    0.8293    5.0502 H         1 <0>         0.0876
@<TRIPOS>BOND
     1    1    2 1
     2    1   22 1
     3    1   23 1
     4    1   24 1
     5    2    7 2
     6    2    3 1
     7    3    4 2
     8    3   25 1
     9    4    5 1
    10    4   21 1
    11    5    6 1
    12    5    7 1
    13    7    8 1
    14    8    9 2
    15    8   26 1
    16    9   13 1
    17    9   10 1
    18   10   11 2
    19   10   15 1
    20   11   12 1
    21   12   13 am
    22   12   27 1
    23   13   14 2
    24   15   20 ar
    25   15   16 ar
    26   16   17 ar
    27   16   28 1
    28   17   18 ar
    29   18   19 ar
    30   18   29 1
    31   19   20 ar
    32   19   30 1
    33   21   31 1
    34   21   32 1
    35   21   33 1
@<TRIPOS>MOLECULE
ZINC02541690
   50    54     0     0     0
SMALL
USER_CHARGES

@<TRIPOS>ATOM
      1 C1         -0.0076    1.0769   -0.0639 C.ar      1 <0>        -0.1201
      2 C2         -0.3749    1.7874   -1.1918 C.ar      1 <0>        -0.1032
      3 C3         -0.4011    3.1682   -1.1616 C.ar      1 <0>        -0.1403
      4 C4         -0.0482    3.8424   -0.0012 C.ar      1 <0>         0.0844
      5 C5          0.3252    3.1270    1.1277 C.ar      1 <0>        -0.1219
      6 C6          0.3446    1.7462    1.0937 C.ar      1 <0>        -0.1024
      7 O1         -0.0685    5.2007    0.0297 O.3       1 <0>        -0.2561
      8 C7         -1.2733    5.8229   -0.0605 C.ar      1 <0>         0.1209
      9 C8         -2.4420    5.0734   -0.0575 C.ar      1 <0>        -0.1864
     10 C9         -3.6665    5.7022   -0.1440 C.ar      1 <0>        -0.0876
     11 C10        -3.7294    7.0914   -0.2453 C.ar      1 <0>        -0.0393
     12 C11        -2.5538    7.8408   -0.2534 C.ar      1 <0>        -0.0706
     13 C12        -1.3327    7.2063   -0.1612 C.ar      1 <0>        -0.1355
     14 C13        -5.0439    7.7702   -0.3447 C.2       1 <0>        -0.0996
     15 C14        -5.4752    8.8157    0.4026 C.2       1 <0>         0.0615
     16 N1         -6.7407    9.1662    0.0160 N.pl3     1 <0>        -0.4465
     17 C15        -7.1722    8.3480   -0.9928 C.ar      1 <0>         0.3464
     18 C16        -6.1366    7.4378   -1.2675 C.ar      1 <0>        -0.2541
     19 C17        -6.3296    6.4808   -2.2726 C.ar      1 <0>         0.4927
     20 N2         -7.4889    6.4750   -2.9250 N.ar      1 <0>        -0.6024
     21 C18        -8.4364    7.3483   -2.6357 C.ar      1 <0>         0.3613
     22 N3         -8.2978    8.2633   -1.7007 N.ar      1 <0>        -0.5704
     23 N4         -5.3395    5.5642   -2.5782 N.pl3     1 <0>        -0.8323
     24 C19        -7.5233   10.2572    0.6019 C.3       1 <0>         0.1314
     25 C20        -6.7514   11.5871    0.4778 C.3       1 <0>        -0.1341
     26 C21        -7.0705   12.3360    1.7956 C.3       1 <0>        -0.1234
     27 C22        -7.0781   11.1955    2.8436 C.3       1 <0>        -0.1245
     28 C23        -7.7310   10.0083    2.1061 C.3       1 <0>        -0.1368
     29 H1          0.0086   -0.0027   -0.0884 H         1 <0>         0.1293
     30 H2         -0.6455    1.2623   -2.0959 H         1 <0>         0.1308
     31 H3         -0.6917    3.7227   -2.0416 H         1 <0>         0.1301
     32 H4          0.6006    3.6493    2.0319 H         1 <0>         0.1330
     33 H5          0.6354    1.1889    1.9719 H         1 <0>         0.1326
     34 H6         -2.3923    3.9971    0.0169 H         1 <0>         0.1328
     35 H7         -4.5754    5.1189   -0.1374 H         1 <0>         0.1285
     36 H8         -2.5992    8.9170   -0.3321 H         1 <0>         0.1344
     37 H9         -0.4216    7.7863   -0.1671 H         1 <0>         0.1366
     38 H10        -4.9063    9.2997    1.1827 H         1 <0>         0.1765
     39 H11        -9.3630    7.3095   -3.1890 H         1 <0>         0.1989
     40 H12        -4.4989    5.5788   -2.0944 H         1 <0>         0.4111
     41 H13        -5.4859    4.9068   -3.2763 H         1 <0>         0.4066
     42 H14        -8.4876   10.3362    0.0999 H         1 <0>         0.1108
     43 H15        -5.6807   11.4004    0.3949 H         1 <0>         0.0768
     44 H16        -7.1079   12.1565   -0.3805 H         1 <0>         0.0769
     45 H17        -8.0475   12.8161    1.7401 H         1 <0>         0.0733
     46 H18        -6.2930   13.0650    2.0236 H         1 <0>         0.0745
     47 H19        -7.6730   11.4791    3.7118 H         1 <0>         0.0727
     48 H20        -6.0601   10.9455    3.1427 H         1 <0>         0.0687
     49 H21        -8.7961    9.9672    2.3342 H         1 <0>         0.0791
     50 H22        -7.2503    9.0752    2.4000 H         1 <0>         0.0750
@<TRIPOS>BOND
     1    1    6 ar
     2    1    2 ar
     3    1   29 1
     4    2    3 ar
     5    2   30 1
     6    3    4 ar
     7    3   31 1
     8    4    5 ar
     9    4    7 1
    10    5    6 ar
    11    5   32 1
    12    6   33 1
    13    7    8 1
    14    8   13 ar
    15    8    9 ar
    16    9   10 ar
    17    9   34 1
    18   10   11 ar
    19   10   35 1
    20   11   12 ar
    21   11   14 1
    22   12   13 ar
    23   12   36 1
    24   13   37 1
    25   14   18 1
    26   14   15 2
    27   15   16 1
    28   15   38 1
    29   16   17 1
    30   16   24 1
    31   17   22 ar
    32   17   18 ar
    33   18   19 ar
    34   19   20 ar
    35   19   23 1
    36   20   21 ar
    37   21   22 ar
    38   21   39 1
    39   23   40 1
    40   23   41 1
    41   24   28 1
    42   24   25 1
    43   24   42 1
    44   25   26 1
    45   25   43 1
    46   25   44 1
    47   26   27 1
    48   26   45 1
    49   26   46 1
    50   27   28 1
    51   27   47 1
    52   27   48 1
    53   28   49 1
    54   28   50 1
@<TRIPOS>MOLECULE
ZINC02549646
   29    32     0     0     0
SMALL
USER_CHARGES

@<TRIPOS>ATOM
      1 C1         -1.2167   -7.4472   -0.0243 C.ar      1 <0>        -0.0978
      2 C2         -2.2490   -6.8510    0.6773 C.ar      1 <0>        -0.1195
      3 C3         -2.3756   -5.4769    0.6891 C.ar      1 <0>        -0.1000
      4 C4         -1.4602   -4.6893   -0.0075 C.ar      1 <0>        -0.0631
      5 C5         -0.4246   -5.2961   -0.7168 C.ar      1 <0>        -0.0663
      6 C6         -0.3050   -6.6709   -0.7171 C.ar      1 <0>        -0.1166
      7 C7         -1.5910   -3.2127    0.0009 C.2       1 <0>         0.2253
      8 C8         -0.5249   -2.2817   -0.0044 C.2       1 <0>        -0.3310
      9 C9         -1.0862   -1.0118    0.0076 C.2       1 <0>         0.1305
     10 N1         -2.4276   -1.1663    0.0195 N.2       1 <0>        -0.2692
     11 H1         -3.6367   -2.9332    0.0201 H         1 <0>         0.4575
     12 N2         -2.7195   -2.5347    0.0144 N.pl3     1 <0>        -0.4216
     13 C10         0.0021   -0.0041    0.0026 C.ar      1 <0>         0.0107
     14 C11        -0.0168    1.3840    0.0096 C.ar      1 <0>        -0.0888
     15 C12         1.1752    2.0935    0.0015 C.ar      1 <0>        -0.0886
     16 C13         2.3848    1.4283   -0.0120 C.ar      1 <0>        -0.1152
     17 C14         2.4196    0.0414   -0.0204 C.ar      1 <0>        -0.0475
     18 C15         1.2351   -0.6793   -0.0134 C.ar      1 <0>        -0.1516
     19 C16         0.9448   -2.1357   -0.0175 C.2       1 <0>         0.4826
     20 O1          1.7605   -3.0354   -0.0289 O.2       1 <0>        -0.4316
     21 H2         -1.1218   -8.5230   -0.0310 H         1 <0>         0.1297
     22 H3         -2.9576   -7.4621    1.2166 H         1 <0>         0.1310
     23 H4         -3.1821   -5.0125    1.2372 H         1 <0>         0.1238
     24 H5          0.2848   -4.6911   -1.2619 H         1 <0>         0.1331
     25 H6          0.4990   -7.1418   -1.2631 H         1 <0>         0.1327
     26 H7         -0.9592    1.9114    0.0170 H         1 <0>         0.1363
     27 H8          1.1568    3.1733    0.0069 H         1 <0>         0.1378
     28 H9          3.3074    1.9897   -0.0176 H         1 <0>         0.1385
     29 H10         3.3676   -0.4759   -0.0320 H         1 <0>         0.1388
@<TRIPOS>BOND
     1    1    6 ar
     2    1    2 ar
     3    1   21 1
     4    2    3 ar
     5    2   22 1
     6    3    4 ar
     7    3   23 1
     8    4    5 ar
     9    4    7 1
    10    5    6 ar
    11    5   24 1
    12    6   25 1
    13    7    8 2
    14    7   12 1
    15    8   19 1
    16    8    9 1
    17    9   13 1
    18    9   10 2
    19   10   12 1
    20   11   12 1
    21   13   18 ar
    22   13   14 ar
    23   14   15 ar
    24   14   26 1
    25   15   16 ar
    26   15   27 1
    27   16   17 ar
    28   16   28 1
    29   17   18 ar
    30   17   29 1
    31   18   19 1
    32   19   20 2
@<TRIPOS>MOLECULE
ZINC02549646
   29    32     0     0     0
SMALL
USER_CHARGES

@<TRIPOS>ATOM
      1 C1         -1.2167   -7.4472   -0.0243 C.ar      1 <0>        -0.0978
      2 C2         -2.2490   -6.8510    0.6773 C.ar      1 <0>        -0.1195
      3 C3         -2.3756   -5.4769    0.6891 C.ar      1 <0>        -0.1000
      4 C4         -1.4602   -4.6893   -0.0075 C.ar      1 <0>        -0.0631
      5 C5         -0.4246   -5.2961   -0.7168 C.ar      1 <0>        -0.0663
      6 C6         -0.3050   -6.6709   -0.7171 C.ar      1 <0>        -0.1166
      7 C7         -1.5910   -3.2127    0.0009 C.2       1 <0>         0.2253
      8 C8         -0.5249   -2.2817   -0.0044 C.2       1 <0>        -0.3310
      9 C9         -1.0862   -1.0118    0.0076 C.2       1 <0>         0.1305
     10 N1         -2.4276   -1.1663    0.0195 N.2       1 <0>        -0.2692
     11 H1         -3.6367   -2.9332    0.0201 H         1 <0>         0.4575
     12 N2         -2.7195   -2.5347    0.0144 N.pl3     1 <0>        -0.4216
     13 C10         0.0021   -0.0041    0.0026 C.ar      1 <0>         0.0107
     14 C11        -0.0168    1.3840    0.0096 C.ar      1 <0>        -0.0888
     15 C12         1.1752    2.0935    0.0015 C.ar      1 <0>        -0.0886
     16 C13         2.3848    1.4283   -0.0120 C.ar      1 <0>        -0.1152
     17 C14         2.4196    0.0414   -0.0204 C.ar      1 <0>        -0.0475
     18 C15         1.2351   -0.6793   -0.0134 C.ar      1 <0>        -0.1516
     19 C16         0.9448   -2.1357   -0.0175 C.2       1 <0>         0.4826
     20 O1          1.7605   -3.0354   -0.0289 O.2       1 <0>        -0.4316
     21 H2         -1.1218   -8.5230   -0.0310 H         1 <0>         0.1297
     22 H3         -2.9576   -7.4621    1.2166 H         1 <0>         0.1310
     23 H4         -3.1821   -5.0125    1.2372 H         1 <0>         0.1238
     24 H5          0.2848   -4.6911   -1.2619 H         1 <0>         0.1331
     25 H6          0.4990   -7.1418   -1.2631 H         1 <0>         0.1327
     26 H7         -0.9592    1.9114    0.0170 H         1 <0>         0.1363
     27 H8          1.1568    3.1733    0.0069 H         1 <0>         0.1378
     28 H9          3.3074    1.9897   -0.0176 H         1 <0>         0.1385
     29 H10         3.3676   -0.4759   -0.0320 H         1 <0>         0.1388
@<TRIPOS>BOND
     1    1    6 ar
     2    1    2 ar
     3    1   21 1
     4    2    3 ar
     5    2   22 1
     6    3    4 ar
     7    3   23 1
     8    4    5 ar
     9    4    7 1
    10    5    6 ar
    11    5   24 1
    12    6   25 1
    13    7    8 2
    14    7   12 1
    15    8   19 1
    16    8    9 1
    17    9   13 1
    18    9   10 2
    19   10   12 1
    20   11   12 1
    21   13   18 ar
    22   13   14 ar
    23   14   15 ar
    24   14   26 1
    25   15   16 ar
    26   15   27 1
    27   16   17 ar
    28   16   28 1
    29   17   18 ar
    30   17   29 1
    31   18   19 1
    32   19   20 2
@<TRIPOS>MOLECULE
ZINC03815833
   33    36     0     0     0
SMALL
USER_CHARGES

@<TRIPOS>ATOM
      1 C1          2.2162    5.3068   -0.0235 C.3       1 <0>         0.0231
      2 O1          2.3114    3.8810   -0.0290 O.3       1 <0>        -0.3127
      3 C2          1.1448    3.1850   -0.0161 C.ar      1 <0>         0.1516
      4 C3          1.1664    1.7965   -0.0206 C.ar      1 <0>        -0.1521
      5 C4         -0.0158    1.0871   -0.0079 C.ar      1 <0>        -0.0572
      6 C5         -1.2342    1.7655    0.0040 C.ar      1 <0>        -0.1041
      7 C6         -1.2523    3.1601    0.0143 C.ar      1 <0>        -0.0224
      8 C7         -0.0666    3.8635    0.0011 C.ar      1 <0>        -0.2072
      9 C8         -2.5068    1.0063    0.0119 C.2       1 <0>         0.2340
     10 C9         -3.6957    1.3793    0.6836 C.2       1 <0>        -0.3354
     11 C10        -4.6399    0.3929    0.4297 C.2       1 <0>         0.1309
     12 N1         -4.0486   -0.5368   -0.3506 N.2       1 <0>        -0.2703
     13 H1         -2.0606   -0.6505   -1.1373 H         1 <0>         0.4572
     14 N2         -2.7281   -0.1424   -0.5930 N.pl3     1 <0>        -0.4237
     15 C11        -5.9071    0.7527    1.1109 C.ar      1 <0>         0.0113
     16 C12        -7.1340    0.1079    1.1928 C.ar      1 <0>        -0.0891
     17 C13        -8.1672    0.6741    1.9248 C.ar      1 <0>        -0.0887
     18 C14        -7.9812    1.8713    2.5866 C.ar      1 <0>        -0.1156
     19 C15        -6.7569    2.5207    2.5254 C.ar      1 <0>        -0.0479
     20 C16        -5.7160    1.9652    1.7966 C.ar      1 <0>        -0.1518
     21 C17        -4.3198    2.4037    1.5448 C.2       1 <0>         0.4831
     22 O2         -3.7916    3.4126    1.9669 O.2       1 <0>        -0.4340
     23 H2          3.2173    5.7378   -0.0351 H         1 <0>         0.1044
     24 H3          1.6679    5.6378   -0.9055 H         1 <0>         0.0593
     25 H4          1.6908    5.6325    0.8743 H         1 <0>         0.0602
     26 H5          2.1103    1.2717   -0.0336 H         1 <0>         0.1401
     27 H6          0.0018    0.0072   -0.0118 H         1 <0>         0.1319
     28 H7         -2.1942    3.6885    0.0276 H         1 <0>         0.1365
     29 H8         -0.0800    4.9434    0.0044 H         1 <0>         0.1382
     30 H9         -7.2870   -0.8292    0.6781 H         1 <0>         0.1362
     31 H10        -9.1235    0.1749    1.9776 H         1 <0>         0.1375
     32 H11        -8.7919    2.3040    3.1540 H         1 <0>         0.1382
     33 H12        -6.6144    3.4570    3.0445 H         1 <0>         0.1384
@<TRIPOS>BOND
     1    1    2 1
     2    1   23 1
     3    1   24 1
     4    1   25 1
     5    2    3 1
     6    3    8 ar
     7    3    4 ar
     8    4    5 ar
     9    4   26 1
    10    5    6 ar
    11    5   27 1
    12    6    7 ar
    13    6    9 1
    14    7    8 ar
    15    7   28 1
    16    8   29 1
    17    9   10 2
    18    9   14 1
    19   10   21 1
    20   10   11 1
    21   11   15 1
    22   11   12 2
    23   12   14 1
    24   13   14 1
    25   15   20 ar
    26   15   16 ar
    27   16   17 ar
    28   16   30 1
    29   17   18 ar
    30   17   31 1
    31   18   19 ar
    32   18   32 1
    33   19   20 ar
    34   19   33 1
    35   20   21 1
    36   21   22 2
@<TRIPOS>MOLECULE
ZINC03815833
   33    36     0     0     0
SMALL
USER_CHARGES

@<TRIPOS>ATOM
      1 C1          2.2162    5.3068   -0.0235 C.3       1 <0>         0.0231
      2 O1          2.3114    3.8810   -0.0290 O.3       1 <0>        -0.3127
      3 C2          1.1448    3.1850   -0.0161 C.ar      1 <0>         0.1516
      4 C3          1.1664    1.7965   -0.0206 C.ar      1 <0>        -0.1521
      5 C4         -0.0158    1.0871   -0.0079 C.ar      1 <0>        -0.0572
      6 C5         -1.2342    1.7655    0.0040 C.ar      1 <0>        -0.1041
      7 C6         -1.2523    3.1601    0.0143 C.ar      1 <0>        -0.0224
      8 C7         -0.0666    3.8635    0.0011 C.ar      1 <0>        -0.2072
      9 C8         -2.5068    1.0063    0.0119 C.2       1 <0>         0.2340
     10 C9         -3.6957    1.3793    0.6836 C.2       1 <0>        -0.3354
     11 C10        -4.6399    0.3929    0.4297 C.2       1 <0>         0.1309
     12 N1         -4.0486   -0.5368   -0.3506 N.2       1 <0>        -0.2703
     13 H1         -2.0606   -0.6505   -1.1373 H         1 <0>         0.4572
     14 N2         -2.7281   -0.1424   -0.5930 N.pl3     1 <0>        -0.4237
     15 C11        -5.9071    0.7527    1.1109 C.ar      1 <0>         0.0113
     16 C12        -7.1340    0.1079    1.1928 C.ar      1 <0>        -0.0891
     17 C13        -8.1672    0.6741    1.9248 C.ar      1 <0>        -0.0887
     18 C14        -7.9812    1.8713    2.5866 C.ar      1 <0>        -0.1156
     19 C15        -6.7569    2.5207    2.5254 C.ar      1 <0>        -0.0479
     20 C16        -5.7160    1.9652    1.7966 C.ar      1 <0>        -0.1518
     21 C17        -4.3198    2.4037    1.5448 C.2       1 <0>         0.4831
     22 O2         -3.7916    3.4126    1.9669 O.2       1 <0>        -0.4340
     23 H2          3.2173    5.7378   -0.0351 H         1 <0>         0.1044
     24 H3          1.6679    5.6378   -0.9055 H         1 <0>         0.0593
     25 H4          1.6908    5.6325    0.8743 H         1 <0>         0.0602
     26 H5          2.1103    1.2717   -0.0336 H         1 <0>         0.1401
     27 H6          0.0018    0.0072   -0.0118 H         1 <0>         0.1319
     28 H7         -2.1942    3.6885    0.0276 H         1 <0>         0.1365
     29 H8         -0.0800    4.9434    0.0044 H         1 <0>         0.1382
     30 H9         -7.2870   -0.8292    0.6781 H         1 <0>         0.1362
     31 H10        -9.1235    0.1749    1.9776 H         1 <0>         0.1375
     32 H11        -8.7919    2.3040    3.1540 H         1 <0>         0.1382
     33 H12        -6.6144    3.4570    3.0445 H         1 <0>         0.1384
@<TRIPOS>BOND
     1    1    2 1
     2    1   23 1
     3    1   24 1
     4    1   25 1
     5    2    3 1
     6    3    8 ar
     7    3    4 ar
     8    4    5 ar
     9    4   26 1
    10    5    6 ar
    11    5   27 1
    12    6    7 ar
    13    6    9 1
    14    7    8 ar
    15    7   28 1
    16    8   29 1
    17    9   10 2
    18    9   14 1
    19   10   21 1
    20   10   11 1
    21   11   15 1
    22   11   12 2
    23   12   14 1
    24   13   14 1
    25   15   20 ar
    26   15   16 ar
    27   16   17 ar
    28   16   30 1
    29   17   18 ar
    30   17   31 1
    31   18   19 ar
    32   18   32 1
    33   19   20 ar
    34   19   33 1
    35   20   21 1
    36   21   22 2
@<TRIPOS>MOLECULE
ZINC03815839
   46    50     0     0     0
SMALL
USER_CHARGES

@<TRIPOS>ATOM
      1 C1          0.0919    2.1210    1.3473 C.ar      1 <0>        -0.0398
      2 C2          1.3632    1.5775    1.2162 C.ar      1 <0>        -0.2012
      3 C3          2.4164    2.3978    0.8656 C.ar      1 <0>         0.1468
      4 N1          2.2299    3.6879    0.6594 N.ar      1 <0>        -0.5266
      5 C4          1.0345    4.2444    0.7793 C.ar      1 <0>         0.3788
      6 C5         -0.0718    3.4769    1.1300 C.ar      1 <0>        -0.1981
      7 N2          0.8835    5.6076    0.5533 N.pl3     1 <0>        -1.0349
      8 S1          2.1954    6.5280    0.1361 S.o2      1 <0>         2.6952
      9 O1          1.7187    7.8537   -0.0499 O.2       1 <0>        -0.9522
     10 O2          3.2248    6.2117    1.0632 O.2       1 <0>        -0.9256
     11 C6          2.7467    5.9652   -1.4399 C.ar      1 <0>        -0.6993
     12 C7          3.6915    4.9587   -1.5213 C.ar      1 <0>         0.0460
     13 C8          4.1222    4.5118   -2.7549 C.ar      1 <0>        -0.1936
     14 C9          3.6131    5.0820   -3.9150 C.ar      1 <0>         0.2133
     15 C10         2.6679    6.0967   -3.8295 C.ar      1 <0>        -0.1805
     16 C11         2.2377    6.5351   -2.5927 C.ar      1 <0>         0.0184
     17 N3          4.0503    4.6357   -5.1649 N.pl3     1 <0>        -0.6263
     18 C12         4.9769    3.6409   -5.2469 C.2       1 <0>         0.2560
     19 C13         5.5015    3.2948   -6.4588 C.2       1 <0>        -0.2867
     20 C14         5.3792    4.0347   -7.7373 C.ar      1 <0>        -0.0406
     21 C15         6.0831    3.2873   -8.6897 C.ar      1 <0>         0.1696
     22 C16         6.1364    3.7559  -10.0028 C.ar      1 <0>        -0.1153
     23 C17         5.5261    4.9114  -10.3746 C.ar      1 <0>        -0.0273
     24 C18         4.8052    5.6941   -9.4421 C.ar      1 <0>         0.0567
     25 C19         4.7579    5.2105   -8.1168 C.ar      1 <0>        -0.1123
     26 S2          3.7867    6.4523   -7.3011 S.3       1 <0>        -0.0240
     27 C20         3.5177    7.4746   -8.6785 C.2       1 <0>         0.1244
     28 N4          4.1450    6.8552   -9.6381 N.2       1 <0>        -0.4846
     29 N5          6.6174    2.1580   -8.0822 N.am      1 <0>        -0.6430
     30 C21         6.3127    2.1140   -6.7744 C.2       1 <0>         0.5798
     31 O3          6.6488    1.2449   -5.9891 O.2       1 <0>        -0.5109
     32 H1         -0.7492    1.4994    1.6166 H         1 <0>         0.1407
     33 H2          1.5254    0.5227    1.3826 H         1 <0>         0.1403
     34 H3          3.4058    1.9785    0.7582 H         1 <0>         0.1663
     35 H4         -1.0460    3.9331    1.2269 H         1 <0>         0.1395
     36 H5          0.0097    6.0197    0.6400 H         1 <0>         0.4354
     37 H6          4.0901    4.5189   -0.6190 H         1 <0>         0.1603
     38 H7          4.8573    3.7231   -2.8178 H         1 <0>         0.1404
     39 H8          2.2698    6.5418   -4.7294 H         1 <0>         0.1372
     40 H9          1.5028    7.3235   -2.5255 H         1 <0>         0.1472
     41 H10         3.6938    5.0344   -5.9742 H         1 <0>         0.4057
     42 H11         5.2967    3.1258   -4.3531 H         1 <0>         0.1790
     43 H12         6.6773    3.1853  -10.7432 H         1 <0>         0.1438
     44 H13         5.5923    5.2386  -11.4017 H         1 <0>         0.1458
     45 H14         2.9640    8.4005   -8.7280 H         1 <0>         0.2330
     46 H15         7.1466    1.4882   -8.5429 H         1 <0>         0.4230
@<TRIPOS>BOND
     1    1    6 ar
     2    1    2 ar
     3    1   32 1
     4    2    3 ar
     5    2   33 1
     6    3    4 ar
     7    3   34 1
     8    4    5 ar
     9    5    6 ar
    10    5    7 1
    11    6   35 1
    12    7    8 1
    13    7   36 1
    14    8    9 2
    15    8   10 2
    16    8   11 1
    17   11   16 ar
    18   11   12 ar
    19   12   13 ar
    20   12   37 1
    21   13   14 ar
    22   13   38 1
    23   14   15 ar
    24   14   17 1
    25   15   16 ar
    26   15   39 1
    27   16   40 1
    28   17   18 1
    29   17   41 1
    30   18   19 2
    31   18   42 1
    32   19   30 1
    33   19   20 1
    34   20   25 ar
    35   20   21 ar
    36   21   22 ar
    37   21   29 1
    38   22   23 ar
    39   22   43 1
    40   23   24 ar
    41   23   44 1
    42   24   28 1
    43   24   25 ar
    44   25   26 1
    45   26   27 1
    46   27   28 2
    47   27   45 1
    48   29   30 am
    49   29   46 1
    50   30   31 2
@<TRIPOS>MOLECULE
ZINC03815841
   43    46     0     0     0
SMALL
USER_CHARGES

@<TRIPOS>ATOM
      1 C1         -1.2189    2.1962    0.0197 C.ar      1 <0>        -0.1549
      2 C2         -1.1984    3.5781    0.0313 C.ar      1 <0>         0.1005
      3 N1         -0.0554    4.2358    0.0240 N.ar      1 <0>        -0.4776
      4 C3          1.1049    3.6094    0.0104 C.ar      1 <0>         0.1008
      5 C4          1.1629    2.2286    0.0029 C.ar      1 <0>        -0.1546
      6 C5         -0.0184    1.5028    0.0103 C.ar      1 <0>        -0.0689
      7 C6          0.0021   -0.0041    0.0020 C.3       1 <0>         0.1616
      8 N2          0.0219   -0.4998    1.3805 N.am      1 <0>        -0.7276
      9 C7          0.0422   -1.8260    1.6194 C.2       1 <0>         0.5912
     10 O1          0.0441   -2.6118    0.6902 O.2       1 <0>        -0.5189
     11 C8          0.0620   -2.3225    3.0000 C.2       1 <0>        -0.0465
     12 C9          0.0835   -3.6346    3.3820 C.2       1 <0>        -0.0822
     13 C10         0.0971   -3.6548    4.7901 C.2       1 <0>        -0.1492
     14 C11         0.0835   -2.3575    5.2180 C.2       1 <0>         0.0843
     15 N3          0.0683   -1.5486    4.1385 N.pl3     1 <0>        -0.5295
     16 H1          0.0608   -0.5789    4.1610 H         1 <0>         0.4223
     17 C12         0.1225   -4.8634    5.6510 C.2       1 <0>         0.1980
     18 C13         0.7931   -4.9896    6.8933 C.2       1 <0>        -0.2148
     19 C14         0.5656   -6.2516    7.3551 C.2       1 <0>         0.0731
     20 N4         -0.2077   -6.8884    6.4523 N.2       1 <0>        -0.3169
     21 H2         -1.0341   -6.2090    4.5942 H         1 <0>         0.4514
     22 N5         -0.4781   -6.0054    5.4001 N.pl3     1 <0>        -0.4206
     23 C15         1.5959   -3.9398    7.5676 C.ar      1 <0>         0.0334
     24 C16         2.5873   -3.2584    6.8645 C.ar      1 <0>        -0.0976
     25 C17         3.3288   -2.2785    7.4956 C.ar      1 <0>        -0.0216
     26 C18         3.0951   -1.9801    8.8268 C.ar      1 <0>        -0.1108
     27 C19         2.1149   -2.6578    9.5311 C.ar      1 <0>        -0.0195
     28 C20         1.3648   -3.6361    8.9077 C.ar      1 <0>        -0.1011
     29 Cl1         1.8282   -2.2782   11.2006 Cl        1 <0>        -0.0551
     30 Cl2         4.5606   -1.4248    6.6195 Cl        1 <0>        -0.0577
     31 H3         -2.1583    1.6633    0.0212 H         1 <0>         0.1383
     32 H4         -2.1292    4.1257    0.0420 H         1 <0>         0.1599
     33 H5          2.0206    4.1822    0.0047 H         1 <0>         0.1600
     34 H6          2.1163    1.7214   -0.0089 H         1 <0>         0.1385
     35 H7         -0.8878   -0.3767   -0.5053 H         1 <0>         0.0864
     36 H8          0.8920   -0.3525   -0.5222 H         1 <0>         0.0866
     37 H9          0.0204    0.1265    2.1212 H         1 <0>         0.3965
     38 H10         0.0896   -4.4937    2.7276 H         1 <0>         0.1540
     39 H11         0.0889   -2.0336    6.2482 H         1 <0>         0.1789
     40 H12         0.9383   -6.6675    8.2794 H         1 <0>         0.1862
     41 H13         2.7734   -3.4937    5.8270 H         1 <0>         0.1392
     42 H14         3.6797   -1.2161    9.3178 H         1 <0>         0.1429
     43 H15         0.6007   -4.1648    9.4582 H         1 <0>         0.1421
@<TRIPOS>BOND
     1    1    6 ar
     2    1    2 ar
     3    1   31 1
     4    2    3 ar
     5    2   32 1
     6    3    4 ar
     7    4    5 ar
     8    4   33 1
     9    5    6 ar
    10    5   34 1
    11    6    7 1
    12    7    8 1
    13    7   35 1
    14    7   36 1
    15    8    9 am
    16    8   37 1
    17    9   10 2
    18    9   11 1
    19   11   15 1
    20   11   12 2
    21   12   13 1
    22   12   38 1
    23   13   14 2
    24   13   17 1
    25   14   15 1
    26   14   39 1
    27   15   16 1
    28   17   18 2
    29   17   22 1
    30   18   23 1
    31   18   19 1
    32   19   40 1
    33   19   20 2
    34   20   22 1
    35   21   22 1
    36   23   28 ar
    37   23   24 ar
    38   24   25 ar
    39   24   41 1
    40   25   26 ar
    41   25   30 1
    42   26   27 ar
    43   26   42 1
    44   27   28 ar
    45   27   29 1
    46   28   43 1
@<TRIPOS>MOLECULE
ZINC03815841
   43    46     0     0     0
SMALL
USER_CHARGES

@<TRIPOS>ATOM
      1 C1         -1.2189    2.1962    0.0197 C.ar      1 <0>        -0.1549
      2 C2         -1.1984    3.5781    0.0313 C.ar      1 <0>         0.1005
      3 N1         -0.0554    4.2358    0.0240 N.ar      1 <0>        -0.4776
      4 C3          1.1049    3.6094    0.0104 C.ar      1 <0>         0.1008
      5 C4          1.1629    2.2286    0.0029 C.ar      1 <0>        -0.1546
      6 C5         -0.0184    1.5028    0.0103 C.ar      1 <0>        -0.0689
      7 C6          0.0021   -0.0041    0.0020 C.3       1 <0>         0.1616
      8 N2          0.0219   -0.4998    1.3805 N.am      1 <0>        -0.7276
      9 C7          0.0422   -1.8260    1.6194 C.2       1 <0>         0.5912
     10 O1          0.0441   -2.6118    0.6902 O.2       1 <0>        -0.5189
     11 C8          0.0620   -2.3225    3.0000 C.2       1 <0>        -0.0465
     12 C9          0.0835   -3.6346    3.3820 C.2       1 <0>        -0.0822
     13 C10         0.0971   -3.6548    4.7901 C.2       1 <0>        -0.1492
     14 C11         0.0835   -2.3575    5.2180 C.2       1 <0>         0.0843
     15 N3          0.0683   -1.5486    4.1385 N.pl3     1 <0>        -0.5295
     16 H1          0.0608   -0.5789    4.1610 H         1 <0>         0.4223
     17 C12         0.1225   -4.8634    5.6510 C.2       1 <0>         0.1980
     18 C13         0.7931   -4.9896    6.8933 C.2       1 <0>        -0.2148
     19 C14         0.5656   -6.2516    7.3551 C.2       1 <0>         0.0731
     20 N4         -0.2077   -6.8884    6.4523 N.2       1 <0>        -0.3169
     21 H2         -1.0341   -6.2090    4.5942 H         1 <0>         0.4514
     22 N5         -0.4781   -6.0054    5.4001 N.pl3     1 <0>        -0.4206
     23 C15         1.5959   -3.9398    7.5676 C.ar      1 <0>         0.0334
     24 C16         2.5873   -3.2584    6.8645 C.ar      1 <0>        -0.0976
     25 C17         3.3288   -2.2785    7.4956 C.ar      1 <0>        -0.0216
     26 C18         3.0951   -1.9801    8.8268 C.ar      1 <0>        -0.1108
     27 C19         2.1149   -2.6578    9.5311 C.ar      1 <0>        -0.0195
     28 C20         1.3648   -3.6361    8.9077 C.ar      1 <0>        -0.1011
     29 Cl1         1.8282   -2.2782   11.2006 Cl        1 <0>        -0.0551
     30 Cl2         4.5606   -1.4248    6.6195 Cl        1 <0>        -0.0577
     31 H3         -2.1583    1.6633    0.0212 H         1 <0>         0.1383
     32 H4         -2.1292    4.1257    0.0420 H         1 <0>         0.1599
     33 H5          2.0206    4.1822    0.0047 H         1 <0>         0.1600
     34 H6          2.1163    1.7214   -0.0089 H         1 <0>         0.1385
     35 H7         -0.8878   -0.3767   -0.5053 H         1 <0>         0.0864
     36 H8          0.8920   -0.3525   -0.5222 H         1 <0>         0.0866
     37 H9          0.0204    0.1265    2.1212 H         1 <0>         0.3965
     38 H10         0.0896   -4.4937    2.7276 H         1 <0>         0.1540
     39 H11         0.0889   -2.0336    6.2482 H         1 <0>         0.1789
     40 H12         0.9383   -6.6675    8.2794 H         1 <0>         0.1862
     41 H13         2.7734   -3.4937    5.8270 H         1 <0>         0.1392
     42 H14         3.6797   -1.2161    9.3178 H         1 <0>         0.1429
     43 H15         0.6007   -4.1648    9.4582 H         1 <0>         0.1421
@<TRIPOS>BOND
     1    1    6 ar
     2    1    2 ar
     3    1   31 1
     4    2    3 ar
     5    2   32 1
     6    3    4 ar
     7    4    5 ar
     8    4   33 1
     9    5    6 ar
    10    5   34 1
    11    6    7 1
    12    7    8 1
    13    7   35 1
    14    7   36 1
    15    8    9 am
    16    8   37 1
    17    9   10 2
    18    9   11 1
    19   11   15 1
    20   11   12 2
    21   12   13 1
    22   12   38 1
    23   13   14 2
    24   13   17 1
    25   14   15 1
    26   14   39 1
    27   15   16 1
    28   17   18 2
    29   17   22 1
    30   18   23 1
    31   18   19 1
    32   19   40 1
    33   19   20 2
    34   20   22 1
    35   21   22 1
    36   23   28 ar
    37   23   24 ar
    38   24   25 ar
    39   24   41 1
    40   25   26 ar
    41   25   30 1
    42   26   27 ar
    43   26   42 1
    44   27   28 ar
    45   27   29 1
    46   28   43 1
@<TRIPOS>MOLECULE
ZINC03815846
   48    51     0     0     0
SMALL
USER_CHARGES

@<TRIPOS>ATOM
      1 C1          5.5796   -7.5911   -7.8834 C.3       1 <0>        -0.1470
      2 C2          4.2555   -6.9560   -7.4540 C.3       1 <0>        -0.0928
      3 C3          4.5150   -5.5781   -6.9018 C.ar      1 <0>        -0.0699
      4 C4          4.6635   -5.3976   -5.5388 C.ar      1 <0>        -0.0922
      5 C5          4.9075   -4.1373   -5.0299 C.ar      1 <0>        -0.0944
      6 C6          4.9911   -3.0473   -5.8875 C.ar      1 <0>         0.1621
      7 C7          4.8412   -3.2311   -7.2559 C.ar      1 <0>        -0.1223
      8 C8          4.6037   -4.4961   -7.7596 C.ar      1 <0>        -0.0697
      9 Br1         4.3993   -4.7481   -9.6225 Br        1 <0>        -0.0443
     10 N1          5.2313   -1.7697   -5.3747 N.pl3     1 <0>        -0.6501
     11 C9          4.7324   -1.4173   -4.1315 C.ar      1 <0>         0.4280
     12 C10         5.0705   -0.1708   -3.5585 C.ar      1 <0>        -0.1352
     13 C11         5.9087    0.7437   -4.2093 C.ar      1 <0>        -0.0815
     14 C12         6.2015    1.9318   -3.6089 C.ar      1 <0>        -0.1264
     15 C13         5.6801    2.2519   -2.3577 C.ar      1 <0>        -0.0854
     16 C14         4.8615    1.3858   -1.6965 C.ar      1 <0>        -0.1249
     17 C15         4.5356    0.1572   -2.2875 C.ar      1 <0>         0.0220
     18 C16         3.7002   -0.7827   -1.6523 C.ar      1 <0>        -0.1739
     19 C17         3.4332   -1.9572   -2.2849 C.ar      1 <0>         0.1408
     20 N2          3.9390   -2.2441   -3.4773 N.ar      1 <0>        -0.5393
     21 C18         3.1074   -0.4895   -0.2982 C.3       1 <0>        -0.0314
     22 C19         1.8403    0.3087   -0.4666 C.ar      1 <0>         0.0061
     23 C20         0.6136   -0.3270   -0.6030 C.ar      1 <0>        -0.2093
     24 C21        -0.5280    0.4339   -0.7555 C.ar      1 <0>         0.1484
     25 N3         -0.4652    1.7520   -0.7728 N.ar      1 <0>        -0.5092
     26 C22         0.6842    2.3936   -0.6455 C.ar      1 <0>         0.3366
     27 C23         1.8729    1.6919   -0.4888 C.ar      1 <0>        -0.2521
     28 O1          0.7027    3.7500   -0.6682 O.3       1 <0>        -0.4535
     29 H1          6.0465   -6.9740   -8.6511 H         1 <0>         0.0587
     30 H2          6.2438   -7.6639   -7.0222 H         1 <0>         0.0554
     31 H3          5.3920   -8.5877   -8.2828 H         1 <0>         0.0611
     32 H4          3.7887   -7.5731   -6.6863 H         1 <0>         0.0764
     33 H5          3.5914   -6.8832   -8.3152 H         1 <0>         0.0804
     34 H6          4.5937   -6.2443   -4.8719 H         1 <0>         0.1337
     35 H7          5.0285   -3.9983   -3.9657 H         1 <0>         0.1426
     36 H8          4.9104   -2.3866   -7.9256 H         1 <0>         0.1326
     37 H9          5.7473   -1.1296   -5.8894 H         1 <0>         0.4189
     38 H10         6.3202    0.5088   -5.1798 H         1 <0>         0.1249
     39 H11         6.8478    2.6362   -4.1114 H         1 <0>         0.1290
     40 H12         5.9283    3.2004   -1.9047 H         1 <0>         0.1292
     41 H13         4.4633    1.6459   -0.7269 H         1 <0>         0.1328
     42 H14         2.7898   -2.6777   -1.8019 H         1 <0>         0.1553
     43 H15         3.8211    0.0826    0.2947 H         1 <0>         0.0878
     44 H16         2.8815   -1.4268    0.2102 H         1 <0>         0.0934
     45 H17         0.5532   -1.4052   -0.5899 H         1 <0>         0.1382
     46 H18        -1.4848   -0.0556   -0.8620 H         1 <0>         0.1642
     47 H19         2.8099    2.2189   -0.3857 H         1 <0>         0.1376
     48 H20         1.6431    4.0724   -0.5603 H         1 <0>         0.4086
@<TRIPOS>BOND
     1    1    2 1
     2    1   29 1
     3    1   30 1
     4    1   31 1
     5    2    3 1
     6    2   32 1
     7    2   33 1
     8    3    8 ar
     9    3    4 ar
    10    4    5 ar
    11    4   34 1
    12    5    6 ar
    13    5   35 1
    14    6    7 ar
    15    6   10 1
    16    7    8 ar
    17    7   36 1
    18    8    9 1
    19   10   11 1
    20   10   37 1
    21   11   20 ar
    22   11   12 ar
    23   12   17 ar
    24   12   13 ar
    25   13   14 ar
    26   13   38 1
    27   14   15 ar
    28   14   39 1
    29   15   16 ar
    30   15   40 1
    31   16   17 ar
    32   16   41 1
    33   17   18 ar
    34   18   19 ar
    35   18   21 1
    36   19   20 ar
    37   19   42 1
    38   21   22 1
    39   21   43 1
    40   21   44 1
    41   22   27 ar
    42   22   23 ar
    43   23   45 1
    44   23   24 ar
    45   24   46 1
    46   24   25 ar
    47   25   26 ar
    48   26   28 1
    49   26   27 ar
    50   27   47 1
    51   28   48 1
@<TRIPOS>MOLECULE
ZINC03815846
   48    51     0     0     0
SMALL
USER_CHARGES

@<TRIPOS>ATOM
      1 C1          5.5796   -7.5911   -7.8834 C.3       1 <0>        -0.1470
      2 C2          4.2555   -6.9560   -7.4540 C.3       1 <0>        -0.0928
      3 C3          4.5150   -5.5781   -6.9018 C.ar      1 <0>        -0.0699
      4 C4          4.6635   -5.3976   -5.5388 C.ar      1 <0>        -0.0922
      5 C5          4.9075   -4.1373   -5.0299 C.ar      1 <0>        -0.0944
      6 C6          4.9911   -3.0473   -5.8875 C.ar      1 <0>         0.1621
      7 C7          4.8412   -3.2311   -7.2559 C.ar      1 <0>        -0.1223
      8 C8          4.6037   -4.4961   -7.7596 C.ar      1 <0>        -0.0697
      9 Br1         4.3993   -4.7481   -9.6225 Br        1 <0>        -0.0443
     10 N1          5.2313   -1.7697   -5.3747 N.pl3     1 <0>        -0.6501
     11 C9          4.7324   -1.4173   -4.1315 C.ar      1 <0>         0.4280
     12 C10         5.0705   -0.1708   -3.5585 C.ar      1 <0>        -0.1352
     13 C11         5.9087    0.7437   -4.2093 C.ar      1 <0>        -0.0815
     14 C12         6.2015    1.9318   -3.6089 C.ar      1 <0>        -0.1264
     15 C13         5.6801    2.2519   -2.3577 C.ar      1 <0>        -0.0854
     16 C14         4.8615    1.3858   -1.6965 C.ar      1 <0>        -0.1249
     17 C15         4.5356    0.1572   -2.2875 C.ar      1 <0>         0.0220
     18 C16         3.7002   -0.7827   -1.6523 C.ar      1 <0>        -0.1739
     19 C17         3.4332   -1.9572   -2.2849 C.ar      1 <0>         0.1408
     20 N2          3.9390   -2.2441   -3.4773 N.ar      1 <0>        -0.5393
     21 C18         3.1074   -0.4895   -0.2982 C.3       1 <0>        -0.0314
     22 C19         1.8403    0.3087   -0.4666 C.ar      1 <0>         0.0061
     23 C20         0.6136   -0.3270   -0.6030 C.ar      1 <0>        -0.2093
     24 C21        -0.5280    0.4339   -0.7555 C.ar      1 <0>         0.1484
     25 N3         -0.4652    1.7520   -0.7728 N.ar      1 <0>        -0.5092
     26 C22         0.6842    2.3936   -0.6455 C.ar      1 <0>         0.3366
     27 C23         1.8729    1.6919   -0.4888 C.ar      1 <0>        -0.2521
     28 O1          0.7027    3.7500   -0.6682 O.3       1 <0>        -0.4535
     29 H1          6.0465   -6.9740   -8.6511 H         1 <0>         0.0587
     30 H2          6.2438   -7.6639   -7.0222 H         1 <0>         0.0554
     31 H3          5.3920   -8.5877   -8.2828 H         1 <0>         0.0611
     32 H4          3.7887   -7.5731   -6.6863 H         1 <0>         0.0764
     33 H5          3.5914   -6.8832   -8.3152 H         1 <0>         0.0804
     34 H6          4.5937   -6.2443   -4.8719 H         1 <0>         0.1337
     35 H7          5.0285   -3.9983   -3.9657 H         1 <0>         0.1426
     36 H8          4.9104   -2.3866   -7.9256 H         1 <0>         0.1326
     37 H9          5.7473   -1.1296   -5.8894 H         1 <0>         0.4189
     38 H10         6.3202    0.5088   -5.1798 H         1 <0>         0.1249
     39 H11         6.8478    2.6362   -4.1114 H         1 <0>         0.1290
     40 H12         5.9283    3.2004   -1.9047 H         1 <0>         0.1292
     41 H13         4.4633    1.6459   -0.7269 H         1 <0>         0.1328
     42 H14         2.7898   -2.6777   -1.8019 H         1 <0>         0.1553
     43 H15         3.8211    0.0826    0.2947 H         1 <0>         0.0878
     44 H16         2.8815   -1.4268    0.2102 H         1 <0>         0.0934
     45 H17         0.5532   -1.4052   -0.5899 H         1 <0>         0.1382
     46 H18        -1.4848   -0.0556   -0.8620 H         1 <0>         0.1642
     47 H19         2.8099    2.2189   -0.3857 H         1 <0>         0.1376
     48 H20         1.6431    4.0724   -0.5603 H         1 <0>         0.4086
@<TRIPOS>BOND
     1    1    2 1
     2    1   29 1
     3    1   30 1
     4    1   31 1
     5    2    3 1
     6    2   32 1
     7    2   33 1
     8    3    8 ar
     9    3    4 ar
    10    4    5 ar
    11    4   34 1
    12    5    6 ar
    13    5   35 1
    14    6    7 ar
    15    6   10 1
    16    7    8 ar
    17    7   36 1
    18    8    9 1
    19   10   11 1
    20   10   37 1
    21   11   20 ar
    22   11   12 ar
    23   12   17 ar
    24   12   13 ar
    25   13   14 ar
    26   13   38 1
    27   14   15 ar
    28   14   39 1
    29   15   16 ar
    30   15   40 1
    31   16   17 ar
    32   16   41 1
    33   17   18 ar
    34   18   19 ar
    35   18   21 1
    36   19   20 ar
    37   19   42 1
    38   21   22 1
    39   21   43 1
    40   21   44 1
    41   22   27 ar
    42   22   23 ar
    43   23   45 1
    44   23   24 ar
    45   24   46 1
    46   24   25 ar
    47   25   26 ar
    48   26   28 1
    49   26   27 ar
    50   27   47 1
    51   28   48 1
@<TRIPOS>MOLECULE
ZINC03816601
   60    64     0     0     0
SMALL
USER_CHARGES

@<TRIPOS>ATOM
      1 C1          0.0021   -0.0041    0.0020 C.ar      1 <0>        -0.1101
      2 C2         -0.0167    1.3786    0.0096 C.ar      1 <0>        -0.1001
      3 C3          1.1691    2.0868    0.0021 C.ar      1 <0>        -0.1164
      4 C4          2.3808    1.4090   -0.0132 C.ar      1 <0>         0.1164
      5 C5          2.3963    0.0206   -0.0203 C.ar      1 <0>        -0.1155
      6 C6          1.2072   -0.6820   -0.0127 C.ar      1 <0>        -0.0985
      7 N1          3.5854    2.1246   -0.0214 N.pl3     1 <0>        -0.4434
      8 C7          4.6487    1.9260    0.8079 C.2       1 <0>         0.2754
      9 N2          5.6001    2.7664    0.5242 N.2       1 <0>        -0.4842
     10 C8          5.2139    3.5628   -0.5067 C.ar      1 <0>         0.0487
     11 C9          3.9179    3.1582   -0.8753 C.ar      1 <0>         0.0595
     12 C10         3.2585    3.7954   -1.9189 C.ar      1 <0>        -0.1012
     13 C11         3.8673    4.8147   -2.5937 C.ar      1 <0>        -0.0799
     14 C12         5.1574    5.2275   -2.2422 C.ar      1 <0>        -0.0831
     15 C13         5.8295    4.6074   -1.1955 C.ar      1 <0>        -0.0328
     16 C14         5.8056    6.3344   -2.9828 C.2       1 <0>         0.0705
     17 C15         6.1289    6.1912   -4.3511 C.2       1 <0>        -0.1975
     18 C16         6.7195    7.2104   -5.0107 C.2       1 <0>         0.1169
     19 N3          7.0099    8.3776   -4.3778 N.am      1 <0>        -0.5025
     20 C17         6.7193    8.5552   -3.0759 C.2       1 <0>         0.5184
     21 O1          6.9907    9.6132   -2.5302 O.2       1 <0>        -0.5497
     22 C18         6.1003    7.5311   -2.3465 C.2       1 <0>        -0.2276
     23 C19         7.6512    9.4615   -5.1262 C.3       1 <0>         0.0968
     24 C20         6.5774   10.3571   -5.7474 C.3       1 <0>        -0.1680
     25 C21         7.2471   11.4892   -6.5290 C.3       1 <0>        -0.0006
     26 C22         5.4482   11.6211   -8.1437 C.3       1 <0>        -0.0060
     27 C23         4.2947   12.4971   -8.6376 C.3       1 <0>        -0.1475
     28 C24         4.8601   13.7923   -9.2271 C.3       1 <0>        -0.1391
     29 C25         5.6954   14.5070   -8.1612 C.3       1 <0>        -0.1482
     30 C26         6.8083   13.5726   -7.6810 C.3       1 <0>        -0.0015
     31 H1         -0.9264   -0.5556    0.0080 H         1 <0>         0.1334
     32 H2         -0.9595    1.9053    0.0170 H         1 <0>         0.1349
     33 H3          1.1538    3.1667    0.0077 H         1 <0>         0.1289
     34 H4          3.3373   -0.5094   -0.0322 H         1 <0>         0.1325
     35 H5          1.2187   -1.7619   -0.0186 H         1 <0>         0.1365
     36 H6          4.6944    1.1798    1.5873 H         1 <0>         0.2193
     37 H7          2.2627    3.4838   -2.1973 H         1 <0>         0.1281
     38 H8          3.3493    5.3060   -3.4041 H         1 <0>         0.1336
     39 H9          6.8258    4.9247   -0.9251 H         1 <0>         0.1361
     40 H10         5.9039    5.2697   -4.8675 H         1 <0>         0.1524
     41 H11         6.9645    7.0967   -6.0563 H         1 <0>         0.1648
     42 H12         5.8604    7.6700   -1.3027 H         1 <0>         0.1546
     43 H13         8.2708   10.0520   -4.4513 H         1 <0>         0.1110
     44 H14         8.2735    9.0396   -5.9153 H         1 <0>         0.1015
     45 H15         5.9577    9.7667   -6.4223 H         1 <0>         0.0919
     46 H16         5.9550   10.7791   -4.9583 H         1 <0>         0.0965
     47 H17         7.8668   12.0796   -5.8541 H         1 <0>         0.1346
     48 H18         7.8695   11.0672   -7.3181 H         1 <0>         0.1346
     49 H19         6.0999   11.3725   -8.9813 H         1 <0>         0.1307
     50 H20         5.0483   10.7044   -7.7104 H         1 <0>         0.1269
     51 H21         3.6350   12.7347   -7.8031 H         1 <0>         0.0871
     52 H22         3.7337   11.9629   -9.4044 H         1 <0>         0.1117
     53 H23         4.0400   14.4382   -9.5407 H         1 <0>         0.0940
     54 H24         5.4888   13.5586  -10.0863 H         1 <0>         0.0818
     55 H25         5.0577   14.7761   -7.3192 H         1 <0>         0.0875
     56 H26         6.1356   15.4082   -8.5877 H         1 <0>         0.1125
     57 H27         7.3961   14.0733   -6.9117 H         1 <0>         0.1291
     58 H28         7.4535   13.3149   -8.5209 H         1 <0>         0.1304
     59 N4          6.1978   12.3567   -7.1030 N.4       1 <0>        -0.3940
     60 H29         5.5484   12.6325   -6.3571 H         1 <0>         0.4278
@<TRIPOS>BOND
     1    1    6 ar
     2    1    2 ar
     3    1   31 1
     4    2    3 ar
     5    2   32 1
     6    3    4 ar
     7    3   33 1
     8    4    5 ar
     9    4    7 1
    10    5    6 ar
    11    5   34 1
    12    6   35 1
    13    7   11 1
    14    7    8 1
    15    8    9 2
    16    8   36 1
    17    9   10 1
    18   10   15 ar
    19   10   11 ar
    20   11   12 ar
    21   12   13 ar
    22   12   37 1
    23   13   14 ar
    24   13   38 1
    25   14   15 ar
    26   14   16 1
    27   15   39 1
    28   16   22 2
    29   16   17 1
    30   17   18 2
    31   17   40 1
    32   18   19 1
    33   18   41 1
    34   19   20 am
    35   19   23 1
    36   20   21 2
    37   20   22 1
    38   22   42 1
    39   23   24 1
    40   23   43 1
    41   23   44 1
    42   24   25 1
    43   24   45 1
    44   24   46 1
    45   25   47 1
    46   25   48 1
    47   25   59 1
    48   26   27 1
    49   26   49 1
    50   26   50 1
    51   26   59 1
    52   27   28 1
    53   27   51 1
    54   27   52 1
    55   28   29 1
    56   28   53 1
    57   28   54 1
    58   29   30 1
    59   29   55 1
    60   29   56 1
    61   30   57 1
    62   30   58 1
    63   30   59 1
    64   59   60 1
@<TRIPOS>MOLECULE
ZINC03832384
   58    60     0     0     0
SMALL
USER_CHARGES

@<TRIPOS>ATOM
      1 C1          8.4018    6.7069    2.9038 C.3       1 <0>        -0.1537
      2 C2          7.0834    6.0135    3.2531 C.3       1 <0>        -0.1217
      3 C3          6.3023    5.7266    1.9692 C.3       1 <0>        -0.1329
      4 C4          4.9839    5.0333    2.3185 C.3       1 <0>         0.1342
      5 N1          4.2359    4.7585    1.0892 N.am      1 <0>        -0.7373
      6 C5          3.0358    4.1485    1.1527 C.2       1 <0>         0.7065
      7 O1          2.5739    3.8261    2.2303 O.2       1 <0>        -0.5661
      8 N2          2.3477    3.8958    0.0217 N.am      1 <0>        -0.6802
      9 C6          1.1393    3.1876    0.0799 C.ar      1 <0>         0.1889
     10 C7          0.3821    3.2007    1.2434 C.ar      1 <0>        -0.1089
     11 C8         -0.8082    2.5030    1.3004 C.ar      1 <0>        -0.0979
     12 C9         -1.2503    1.7922    0.1937 C.ar      1 <0>         0.0663
     13 C10        -0.4921    1.7739   -0.9679 C.ar      1 <0>        -0.0852
     14 C11         0.6991    2.4720   -1.0266 C.ar      1 <0>        -0.0614
     15 Cl1         1.6453    2.4543   -2.4819 Cl        1 <0>        -0.0518
     16 O2         -2.4248    1.1098    0.2491 O.3       1 <0>        -0.2414
     17 C12        -3.5776    1.8205    0.1820 C.ar      1 <0>         0.1824
     18 C13        -3.5617    3.1858   -0.0452 C.ar      1 <0>        -0.2650
     19 C14        -4.7586    3.8872   -0.1088 C.ar      1 <0>         0.1640
     20 N3         -5.9186    3.2914    0.0412 N.ar      1 <0>        -0.4937
     21 C15        -6.0079    1.9750    0.2636 C.ar      1 <0>         0.1726
     22 C16        -4.8319    1.1893    0.3360 C.ar      1 <0>        -0.1071
     23 C17        -4.9289   -0.1922    0.5629 C.ar      1 <0>        -0.1545
     24 C18        -6.1575   -0.7685    0.7065 C.ar      1 <0>         0.1146
     25 C19        -7.3243    0.0061    0.6293 C.ar      1 <0>         0.1555
     26 C20        -7.2581    1.3534    0.4214 C.ar      1 <0>        -0.1828
     27 O3         -8.5362   -0.5910    0.7751 O.3       1 <0>        -0.2890
     28 C21        -9.6884    0.2496    0.6866 C.3       1 <0>         0.0524
     29 C22       -10.9509   -0.5941    0.8743 C.3       1 <0>         0.0785
     30 O4        -10.9739   -1.1287    2.1993 O.3       1 <0>        -0.5664
     31 O5         -6.2516   -2.1070    0.9263 O.3       1 <0>        -0.3004
     32 C23        -5.0273   -2.8410    0.9942 C.3       1 <0>         0.0229
     33 H1          8.9926    6.0591    2.2561 H         1 <0>         0.0548
     34 H2          8.1938    7.6443    2.3879 H         1 <0>         0.0548
     35 H3          8.9583    6.9113    3.8184 H         1 <0>         0.0575
     36 H4          6.4927    6.6613    3.9007 H         1 <0>         0.0665
     37 H5          7.2915    5.0762    3.7690 H         1 <0>         0.0664
     38 H6          6.8930    5.0788    1.3215 H         1 <0>         0.0704
     39 H7          6.0942    6.6640    1.4533 H         1 <0>         0.0704
     40 H8          4.3932    5.6811    2.9662 H         1 <0>         0.0713
     41 H9          5.1920    4.0959    2.8344 H         1 <0>         0.0711
     42 H10         4.6044    5.0157    0.2296 H         1 <0>         0.4000
     43 H11         2.6886    4.2039   -0.8326 H         1 <0>         0.4116
     44 H12         0.7237    3.7568    2.1038 H         1 <0>         0.1751
     45 H13        -1.3973    2.5137    2.2055 H         1 <0>         0.1424
     46 H14        -0.8349    1.2177   -1.8279 H         1 <0>         0.1485
     47 H15        -2.6224    3.7035   -0.1722 H         1 <0>         0.1410
     48 H16        -4.7343    4.9521   -0.2869 H         1 <0>         0.1625
     49 H17        -4.0357   -0.7963    0.6238 H         1 <0>         0.1491
     50 H18        -8.1646    1.9378    0.3644 H         1 <0>         0.1525
     51 H19        -9.6423    1.0124    1.4639 H         1 <0>         0.0757
     52 H20        -9.7141    0.7291   -0.2920 H         1 <0>         0.0823
     53 H21       -11.8312    0.0297    0.7189 H         1 <0>         0.0711
     54 H22       -10.9525   -1.4111    0.1528 H         1 <0>         0.0595
     55 H23       -11.7483   -1.6757    2.3894 H         1 <0>         0.3832
     56 H24        -4.4881   -2.7359    0.0528 H         1 <0>         0.0578
     57 H25        -4.4156   -2.4527    1.8086 H         1 <0>         0.0582
     58 H26        -5.2445   -3.8940    1.1731 H         1 <0>         0.1045
@<TRIPOS>BOND
     1    1    2 1
     2    1   33 1
     3    1   34 1
     4    1   35 1
     5    2    3 1
     6    2   36 1
     7    2   37 1
     8    3    4 1
     9    3   38 1
    10    3   39 1
    11    4    5 1
    12    4   40 1
    13    4   41 1
    14    5    6 am
    15    5   42 1
    16    6    7 2
    17    6    8 am
    18    8    9 1
    19    8   43 1
    20    9   14 ar
    21    9   10 ar
    22   10   11 ar
    23   10   44 1
    24   11   12 ar
    25   11   45 1
    26   12   13 ar
    27   12   16 1
    28   13   14 ar
    29   13   46 1
    30   14   15 1
    31   16   17 1
    32   17   22 ar
    33   17   18 ar
    34   18   19 ar
    35   18   47 1
    36   19   20 ar
    37   19   48 1
    38   20   21 ar
    39   21   26 ar
    40   21   22 ar
    41   22   23 ar
    42   23   24 ar
    43   23   49 1
    44   24   25 ar
    45   24   31 1
    46   25   26 ar
    47   25   27 1
    48   26   50 1
    49   27   28 1
    50   28   29 1
    51   28   51 1
    52   28   52 1
    53   29   30 1
    54   29   53 1
    55   29   54 1
    56   30   55 1
    57   31   32 1
    58   32   56 1
    59   32   57 1
    60   32   58 1
@<TRIPOS>MOLECULE
ZINC03832385
   42    45     0     0     0
SMALL
USER_CHARGES

@<TRIPOS>ATOM
      1 C1          5.9991    4.2458   -6.7244 C.ar      1 <0>        -0.1391
      2 C2          6.9055    3.3365   -7.2329 C.ar      1 <0>        -0.0879
      3 C3          6.8398    2.0068   -6.8550 C.ar      1 <0>        -0.0530
      4 C4          5.8700    1.5857   -5.9621 C.ar      1 <0>        -0.0855
      5 C5          4.9645    2.4917   -5.4460 C.ar      1 <0>        -0.1028
      6 C6          5.0279    3.8269   -5.8240 C.ar      1 <0>         0.1652
      7 N1          4.1123    4.7462   -5.3035 N.pl3     1 <0>        -0.6447
      8 C7          3.6608    4.6126   -3.9992 C.ar      1 <0>         0.3472
      9 C8          2.6455    5.4601   -3.4978 C.ar      1 <0>        -0.0471
     10 C9          2.0494    6.4610   -4.2692 C.ar      1 <0>        -0.1925
     11 C10         1.0642    7.2489   -3.7078 C.ar      1 <0>         0.2366
     12 C11         0.6614    7.0537   -2.3816 C.ar      1 <0>        -0.1507
     13 C12         1.2288    6.0845   -1.6124 C.ar      1 <0>        -0.0510
     14 C13         2.2314    5.2685   -2.1537 C.ar      1 <0>        -0.0904
     15 C14         2.8599    4.2491   -1.4148 C.ar      1 <0>         0.0849
     16 N2          3.7960    3.5283   -1.9879 N.ar      1 <0>        -0.2323
     17 N3          4.1712    3.6916   -3.2016 N.ar      1 <0>        -0.3076
     18 C15         2.4681    3.9920    0.0175 C.3       1 <0>        -0.0247
     19 C16         1.3505    2.9819    0.0590 C.ar      1 <0>        -0.0346
     20 C17         1.6231    1.6248    0.1389 C.ar      1 <0>        -0.1570
     21 C18         0.5723    0.7279    0.1754 C.ar      1 <0>         0.1002
     22 N4         -0.6764    1.1495    0.1302 N.ar      1 <0>        -0.4863
     23 C19        -0.9729    2.4325    0.0592 C.ar      1 <0>         0.0989
     24 C20         0.0253    3.3875    0.0187 C.ar      1 <0>        -0.1703
     25 N5          0.4631    8.2505   -4.4712 N.pl3     1 <0>        -0.8678
     26 Cl1         7.9764    0.8651   -7.5018 Cl        1 <0>        -0.0707
     27 H1          6.0480    5.2825   -7.0232 H         1 <0>         0.1329
     28 H2          7.6639    3.6625   -7.9294 H         1 <0>         0.1368
     29 H3          5.8214    0.5475   -5.6684 H         1 <0>         0.1368
     30 H4          4.2081    2.1626   -4.7490 H         1 <0>         0.1418
     31 H5          3.7928    5.4776   -5.8548 H         1 <0>         0.4184
     32 H6          2.3555    6.6165   -5.2932 H         1 <0>         0.1283
     33 H7         -0.1109    7.6816   -1.9623 H         1 <0>         0.1350
     34 H8          0.9081    5.9451   -0.5905 H         1 <0>         0.1417
     35 H9          2.1336    4.9229    0.4754 H         1 <0>         0.0965
     36 H10         3.3275    3.6058    0.5656 H         1 <0>         0.1037
     37 H11         2.6437    1.2730    0.1718 H         1 <0>         0.1398
     38 H12         0.7762   -0.3309    0.2373 H         1 <0>         0.1568
     39 H13        -2.0076    2.7403    0.0282 H         1 <0>         0.1551
     40 H14        -0.2238    4.4366   -0.0439 H         1 <0>         0.1326
     41 H15         0.7380    8.3902   -5.3909 H         1 <0>         0.4030
     42 H16        -0.2295    8.8071   -4.0821 H         1 <0>         0.4036
@<TRIPOS>BOND
     1    1    6 ar
     2    1    2 ar
     3    1   27 1
     4    2    3 ar
     5    2   28 1
     6    3    4 ar
     7    3   26 1
     8    4    5 ar
     9    4   29 1
    10    5    6 ar
    11    5   30 1
    12    6    7 1
    13    7    8 1
    14    7   31 1
    15    8   17 ar
    16    8    9 ar
    17    9   14 ar
    18    9   10 ar
    19   10   11 ar
    20   10   32 1
    21   11   12 ar
    22   11   25 1
    23   12   13 ar
    24   12   33 1
    25   13   14 ar
    26   13   34 1
    27   14   15 ar
    28   15   16 ar
    29   15   18 1
    30   16   17 ar
    31   18   19 1
    32   18   35 1
    33   18   36 1
    34   19   24 ar
    35   19   20 ar
    36   20   21 ar
    37   20   37 1
    38   21   22 ar
    39   21   38 1
    40   22   23 ar
    41   23   24 ar
    42   23   39 1
    43   24   40 1
    44   25   41 1
    45   25   42 1
@<TRIPOS>MOLECULE
ZINC03832386
   45    48     0     0     0
SMALL
USER_CHARGES

@<TRIPOS>ATOM
      1 C1         -1.2450    1.7889    0.1666 C.ar      1 <0>        -0.0817
      2 C2         -0.0381    1.1174   -0.0135 C.ar      1 <0>        -0.1235
      3 C3          1.1469    1.7909   -0.0195 C.ar      1 <0>        -0.0845
      4 C4          1.1529    3.1796    0.1641 C.ar      1 <0>        -0.1349
      5 C5         -0.0751    3.8623    0.3533 C.ar      1 <0>         0.0206
      6 C6         -1.2756    3.1386    0.3538 C.ar      1 <0>        -0.1229
      7 C7         -0.0412    5.2586    0.5353 C.ar      1 <0>        -0.1748
      8 C8          1.1624    5.8936    0.5222 C.ar      1 <0>         0.1389
      9 N1          2.3011    5.2375    0.3437 N.ar      1 <0>        -0.5399
     10 C9          2.3495    3.9305    0.1669 C.ar      1 <0>         0.4270
     11 N2          3.5681    3.2980   -0.0155 N.pl3     1 <0>        -0.6511
     12 C10         4.7384    4.0545   -0.1286 C.ar      1 <0>         0.1668
     13 C11         4.7030    5.3048   -0.7328 C.ar      1 <0>        -0.1028
     14 C12         5.8594    6.0525   -0.8377 C.ar      1 <0>        -0.0889
     15 C13         7.0549    5.5519   -0.3526 C.ar      1 <0>        -0.0545
     16 C14         7.0942    4.3042    0.2447 C.ar      1 <0>        -0.0880
     17 C15         5.9397    3.5548    0.3578 C.ar      1 <0>        -0.1413
     18 Cl1         8.5081    6.4913   -0.4931 Cl        1 <0>        -0.0718
     19 C16        -1.3157    6.0360    0.7408 C.3       1 <0>        -0.0308
     20 C17        -1.6931    6.0052    2.1995 C.ar      1 <0>        -0.0376
     21 C18        -1.2363    6.9820    3.0707 C.ar      1 <0>        -0.1418
     22 C19        -1.6013    6.9255    4.4062 C.ar      1 <0>         0.1026
     23 N3         -2.3727    5.9595    4.8553 N.ar      1 <0>        -0.4624
     24 C20        -2.8312    5.0055    4.0548 C.ar      1 <0>         0.0757
     25 C21        -2.5095    5.0030    2.6993 C.ar      1 <0>        -0.1086
     26 C22        -3.6971    3.9371    4.6062 C.2       1 <0>         0.5772
     27 O1         -4.1198    3.0610    3.8778 O.2       1 <0>        -0.5353
     28 N4         -4.0161    3.9368    5.9157 N.am      1 <0>        -0.8345
     29 H1         -2.1699    1.2313    0.1622 H         1 <0>         0.1308
     30 H2         -0.0417    0.0468   -0.1552 H         1 <0>         0.1292
     31 H3          2.0748    1.2575   -0.1644 H         1 <0>         0.1247
     32 H4         -2.2176    3.6470    0.4972 H         1 <0>         0.1337
     33 H5          1.1911    6.9642    0.6612 H         1 <0>         0.1549
     34 H6          3.6095    2.3301   -0.0647 H         1 <0>         0.4194
     35 H7          3.7712    5.6938   -1.1158 H         1 <0>         0.1453
     36 H8          5.8315    7.0268   -1.3027 H         1 <0>         0.1355
     37 H9          8.0284    3.9163    0.6230 H         1 <0>         0.1363
     38 H10         5.9708    2.5812    0.8243 H         1 <0>         0.1326
     39 H11        -1.1662    7.0687    0.4259 H         1 <0>         0.0949
     40 H12        -2.1141    5.5877    0.1494 H         1 <0>         0.0906
     41 H13        -0.6024    7.7794    2.7119 H         1 <0>         0.1429
     42 H14        -1.2472    7.6848    5.0877 H         1 <0>         0.1656
     43 H15        -2.8875    4.2288    2.0481 H         1 <0>         0.1475
     44 H16        -3.6787    4.6361    6.4972 H         1 <0>         0.4123
     45 H17        -4.5829    3.2374    6.2767 H         1 <0>         0.4064
@<TRIPOS>BOND
     1    1    6 ar
     2    1    2 ar
     3    1   29 1
     4    2    3 ar
     5    2   30 1
     6    3    4 ar
     7    3   31 1
     8    4   10 ar
     9    4    5 ar
    10    5    6 ar
    11    5    7 ar
    12    6   32 1
    13    7    8 ar
    14    7   19 1
    15    8    9 ar
    16    8   33 1
    17    9   10 ar
    18   10   11 1
    19   11   12 1
    20   11   34 1
    21   12   17 ar
    22   12   13 ar
    23   13   14 ar
    24   13   35 1
    25   14   15 ar
    26   14   36 1
    27   15   16 ar
    28   15   18 1
    29   16   17 ar
    30   16   37 1
    31   17   38 1
    32   19   20 1
    33   19   39 1
    34   19   40 1
    35   20   25 ar
    36   20   21 ar
    37   21   22 ar
    38   21   41 1
    39   22   23 ar
    40   22   42 1
    41   23   24 ar
    42   24   25 ar
    43   24   26 1
    44   25   43 1
    45   26   27 2
    46   26   28 am
    47   28   44 1
    48   28   45 1
@<TRIPOS>MOLECULE
ZINC03832387
   37    40     0     0     0
SMALL
USER_CHARGES

@<TRIPOS>ATOM
      1 C1         -3.8118    8.2563   -1.6051 C.3       1 <0>        -0.1080
      2 C2         -2.3724    8.1505   -1.1718 C.ar      1 <0>        -0.1517
      3 C3         -1.7677    6.9107   -1.0833 C.ar      1 <0>        -0.0593
      4 C4         -0.4469    6.8098   -0.6925 C.ar      1 <0>        -0.1856
      5 C5          0.2743    7.9550   -0.3760 C.ar      1 <0>         0.2144
      6 C6         -0.3316    9.2008   -0.4643 C.ar      1 <0>        -0.1990
      7 C7         -1.6557    9.2979   -0.8625 C.ar      1 <0>         0.1486
      8 O1         -2.2519   10.5160   -0.9496 O.3       1 <0>        -0.4947
      9 N1          1.6087    7.8529    0.0250 N.pl3     1 <0>        -0.7018
     10 C8          2.1778    6.6040    0.2309 C.ar      1 <0>         0.2502
     11 C9          2.8543    5.9375   -0.8079 C.ar      1 <0>        -0.0536
     12 C10         3.4135    4.6800   -0.5595 C.ar      1 <0>         0.1570
     13 N2          3.3140    4.1201    0.6248 N.ar      1 <0>        -0.4326
     14 C11         2.6835    4.7142    1.6335 C.ar      1 <0>         0.1311
     15 C12         2.0943    5.9730    1.4759 C.ar      1 <0>         0.0317
     16 O2          1.5278    6.3389    2.6464 O.3       1 <0>        -0.1786
     17 C13         1.7007    5.3931    3.5946 C.ar      1 <0>         0.0981
     18 C14         2.4239    4.3299    3.0341 C.ar      1 <0>        -0.1281
     19 C15         2.7412    3.2143    3.8030 C.ar      1 <0>        -0.0372
     20 C16         2.3412    3.1573    5.1213 C.ar      1 <0>        -0.1383
     21 C17         1.6219    4.2040    5.6765 C.ar      1 <0>        -0.0650
     22 C18         1.3066    5.3166    4.9253 C.ar      1 <0>        -0.1160
     23 C19         2.9682    6.5392   -2.1023 C.1       1 <0>         0.2558
     24 N3          3.0586    7.0164   -3.1293 N.1       1 <0>        -0.3808
     25 H1         -3.8583    8.3582   -2.6894 H         1 <0>         0.0658
     26 H2         -4.3498    7.3584   -1.3012 H         1 <0>         0.0654
     27 H3         -4.2686    9.1290   -1.1383 H         1 <0>         0.0713
     28 H4         -2.3279    6.0194   -1.3246 H         1 <0>         0.1297
     29 H5          0.0246    5.8403   -0.6289 H         1 <0>         0.1189
     30 H6          0.2278   10.0928   -0.2236 H         1 <0>         0.1311
     31 H7         -2.1663   10.9347   -1.8170 H         1 <0>         0.3925
     32 H8          2.1374    8.6550    0.1595 H         1 <0>         0.4185
     33 H9          3.9342    4.1625   -1.3517 H         1 <0>         0.1852
     34 H10         3.2984    2.3971    3.3693 H         1 <0>         0.1399
     35 H11         2.5851    2.2931    5.7214 H         1 <0>         0.1398
     36 H12         1.3087    4.1494    6.7086 H         1 <0>         0.1441
     37 H13         0.7493    6.1277    5.3703 H         1 <0>         0.1412
@<TRIPOS>BOND
     1    1    2 1
     2    1   25 1
     3    1   26 1
     4    1   27 1
     5    2    7 ar
     6    2    3 ar
     7    3    4 ar
     8    3   28 1
     9    4    5 ar
    10    4   29 1
    11    5    6 ar
    12    5    9 1
    13    6    7 ar
    14    6   30 1
    15    7    8 1
    16    8   31 1
    17    9   10 1
    18    9   32 1
    19   10   15 ar
    20   10   11 ar
    21   11   12 ar
    22   11   23 1
    23   12   13 ar
    24   12   33 1
    25   13   14 ar
    26   14   18 1
    27   14   15 ar
    28   15   16 1
    29   16   17 1
    30   17   22 ar
    31   17   18 ar
    32   18   19 ar
    33   19   20 ar
    34   19   34 1
    35   20   21 ar
    36   20   35 1
    37   21   22 ar
    38   21   36 1
    39   22   37 1
    40   23   24 3
@<TRIPOS>MOLECULE
ZINC03832388
   33    35     0     0     0
SMALL
USER_CHARGES

@<TRIPOS>ATOM
      1 C1         -0.4886   -0.3487   -5.0611 C.3       1 <0>        -0.1097
      2 C2         -0.6850    0.2919   -3.7113 C.ar      1 <0>        -0.1478
      3 C3         -0.8331    1.6626   -3.6128 C.ar      1 <0>        -0.0595
      4 C4         -1.0138    2.2534   -2.3776 C.ar      1 <0>        -0.1843
      5 C5         -1.0470    1.4701   -1.2300 C.ar      1 <0>         0.2080
      6 C6         -0.8984    0.0934   -1.3272 C.ar      1 <0>        -0.1970
      7 C7         -0.7173   -0.4954   -2.5689 C.ar      1 <0>         0.1491
      8 O1         -0.5711   -1.8429   -2.6675 O.3       1 <0>        -0.4941
      9 N1         -1.2355    2.0670    0.0191 N.pl3     1 <0>        -0.7057
     10 C8         -1.2548    3.4422    0.1309 C.ar      1 <0>         0.2653
     11 C9         -2.4461    4.1772   -0.0711 C.ar      1 <0>        -0.0616
     12 C10        -3.6630    3.5537   -0.3805 C.ar      1 <0>        -0.1546
     13 C11        -4.7731    4.3327   -0.5555 C.ar      1 <0>         0.2986
     14 N2         -4.7217    5.6517   -0.4331 N.ar      1 <0>        -0.4910
     15 C12        -3.6163    6.2958   -0.1394 C.ar      1 <0>         0.2118
     16 C13        -2.4199    5.5875    0.0597 C.ar      1 <0>         0.0788
     17 N3         -1.2764    6.2153    0.3600 N.ar      1 <0>        -0.4359
     18 C14        -0.1579    5.5618    0.5470 C.ar      1 <0>         0.1805
     19 C15        -0.0927    4.1623    0.4431 C.ar      1 <0>        -0.0533
     20 C16         1.1475    3.4781    0.6543 C.1       1 <0>         0.2468
     21 N4          2.1313    2.9354    0.8218 N.1       1 <0>        -0.3756
     22 F1         -5.9504    3.7442   -0.8601 F         1 <0>        -0.1045
     23 H1         -1.4589   -0.6056   -5.4860 H         1 <0>         0.0673
     24 H2          0.0247    0.3488   -5.7230 H         1 <0>         0.0661
     25 H3          0.1105   -1.2525   -4.9507 H         1 <0>         0.0719
     26 H4         -0.8079    2.2728   -4.5035 H         1 <0>         0.1306
     27 H5         -1.1296    3.3246   -2.3035 H         1 <0>         0.1198
     28 H6         -0.9242   -0.5177   -0.4371 H         1 <0>         0.1319
     29 H7         -1.4035   -2.3216   -2.7815 H         1 <0>         0.3934
     30 H8         -1.3528    1.5146    0.8078 H         1 <0>         0.4208
     31 H9         -3.7214    2.4802   -0.4838 H         1 <0>         0.1573
     32 H10        -3.6266    7.3722   -0.0512 H         1 <0>         0.1937
     33 H11         0.7391    6.1134    0.7871 H         1 <0>         0.1830
@<TRIPOS>BOND
     1    1    2 1
     2    1   23 1
     3    1   24 1
     4    1   25 1
     5    2    7 ar
     6    2    3 ar
     7    3    4 ar
     8    3   26 1
     9    4    5 ar
    10    4   27 1
    11    5    6 ar
    12    5    9 1
    13    6    7 ar
    14    6   28 1
    15    7    8 1
    16    8   29 1
    17    9   10 1
    18    9   30 1
    19   10   19 ar
    20   10   11 ar
    21   11   16 ar
    22   11   12 ar
    23   12   13 ar
    24   12   31 1
    25   13   14 ar
    26   13   22 1
    27   14   15 ar
    28   15   16 ar
    29   15   32 1
    30   16   17 ar
    31   17   18 ar
    32   18   19 ar
    33   18   33 1
    34   19   20 1
    35   20   21 3
@<TRIPOS>MOLECULE
ZINC03832389
   39    42     0     0     0
SMALL
USER_CHARGES

@<TRIPOS>ATOM
      1 C1          5.8046    2.0392   -3.3006 C.ar      1 <0>        -0.1622
      2 C2          5.2067    3.0492   -4.0051 C.ar      1 <0>        -0.0364
      3 C3          4.1937    3.7802   -3.3711 C.ar      1 <0>        -0.1609
      4 C4          3.8342    3.4536   -2.0381 C.ar      1 <0>         0.1533
      5 C5          2.8074    4.2093   -1.4389 C.ar      1 <0>         0.0811
      6 N1          2.2405    5.1755   -2.1226 N.ar      1 <0>        -0.1977
      7 N2          2.5641    5.4781   -3.3244 N.ar      1 <0>        -0.3135
      8 C6          3.5076    4.8429   -3.9997 C.ar      1 <0>         0.3732
      9 N3          3.8164    5.2122   -5.2979 N.pl3     1 <0>        -0.6405
     10 C7          3.2159    6.3401   -5.8654 C.ar      1 <0>         0.1566
     11 C8          2.8986    6.3533   -7.2177 C.ar      1 <0>        -0.1339
     12 C9          2.3008    7.4668   -7.7744 C.ar      1 <0>        -0.0884
     13 C10         2.0278    8.5729   -6.9888 C.ar      1 <0>        -0.0487
     14 C11         2.3481    8.5646   -5.6425 C.ar      1 <0>        -0.0860
     15 C12         2.9408    7.4517   -5.0792 C.ar      1 <0>        -0.0996
     16 Cl1         1.2818    9.9731   -7.6933 Cl        1 <0>        -0.0672
     17 C13         2.3694    3.9158   -0.0271 C.3       1 <0>        -0.0154
     18 C14         1.2545    2.9020   -0.0476 C.ar      1 <0>        -0.0356
     19 C15         1.5289    1.5441    0.0078 C.ar      1 <0>        -0.1596
     20 C16         0.4806    0.6438   -0.0135 C.ar      1 <0>         0.0936
     21 N4         -0.7673    1.0632   -0.0906 N.ar      1 <0>        -0.4864
     22 C17        -1.0656    2.3467   -0.1397 C.ar      1 <0>         0.0964
     23 C18        -0.0700    3.3051   -0.1227 C.ar      1 <0>        -0.1594
     24 N5          4.4507    2.4557   -1.4073 N.ar      1 <0>        -0.4546
     25 C19         5.4008    1.7666   -1.9965 C.ar      1 <0>         0.1549
     26 H1          6.5893    1.4536   -3.7566 H         1 <0>         0.1510
     27 H2          5.5063    3.2752   -5.0178 H         1 <0>         0.1436
     28 H3          4.4492    4.6884   -5.8137 H         1 <0>         0.4199
     29 H4          3.1152    5.4919   -7.8321 H         1 <0>         0.1344
     30 H5          2.0498    7.4759   -8.8248 H         1 <0>         0.1387
     31 H6          2.1340    9.4292   -5.0317 H         1 <0>         0.1388
     32 H7          3.1899    7.4456   -4.0283 H         1 <0>         0.1423
     33 H8          2.0168    4.8342    0.4422 H         1 <0>         0.1006
     34 H9          3.2115    3.5184    0.5394 H         1 <0>         0.1059
     35 H10         2.5490    1.1943    0.0665 H         1 <0>         0.1398
     36 H11         0.6859   -0.4157    0.0289 H         1 <0>         0.1542
     37 H12        -2.0998    2.6525   -0.1981 H         1 <0>         0.1560
     38 H13        -0.3205    4.3547   -0.1676 H         1 <0>         0.1385
     39 H14         5.8824    0.9664   -1.4541 H         1 <0>         0.1735
@<TRIPOS>BOND
     1    1   25 ar
     2    1    2 ar
     3    1   26 1
     4    2    3 ar
     5    2   27 1
     6    3    8 ar
     7    3    4 ar
     8    4    5 ar
     9    4   24 ar
    10    5    6 ar
    11    5   17 1
    12    6    7 ar
    13    7    8 ar
    14    8    9 1
    15    9   10 1
    16    9   28 1
    17   10   15 ar
    18   10   11 ar
    19   11   12 ar
    20   11   29 1
    21   12   13 ar
    22   12   30 1
    23   13   14 ar
    24   13   16 1
    25   14   15 ar
    26   14   31 1
    27   15   32 1
    28   17   18 1
    29   17   33 1
    30   17   34 1
    31   18   23 ar
    32   18   19 ar
    33   19   20 ar
    34   19   35 1
    35   20   21 ar
    36   20   36 1
    37   21   22 ar
    38   22   23 ar
    39   22   37 1
    40   23   38 1
    41   24   25 ar
    42   25   39 1
@<TRIPOS>MOLECULE
ZINC03832390
   53    56     0     0     0
SMALL
USER_CHARGES

@<TRIPOS>ATOM
      1 C1         -9.2281    5.6835    1.8003 C.3       1 <0>        -0.1470
      2 C2         -8.4813    6.1349    0.5435 C.3       1 <0>        -0.0926
      3 C3         -7.1986    5.3546    0.4139 C.ar      1 <0>        -0.0708
      4 C4         -6.0178    5.8817    0.9044 C.ar      1 <0>        -0.0921
      5 C5         -4.8414    5.1674    0.7916 C.ar      1 <0>        -0.0948
      6 C6         -4.8424    3.9224    0.1748 C.ar      1 <0>         0.1636
      7 C7         -6.0295    3.3953   -0.3169 C.ar      1 <0>        -0.1232
      8 C8         -7.2046    4.1127   -0.1959 C.ar      1 <0>        -0.0696
      9 Br1        -8.8219    3.3965   -0.8648 Br        1 <0>        -0.0451
     10 N1         -3.6524    3.1995    0.0545 N.pl3     1 <0>        -0.6512
     11 C9         -2.4515    3.8669   -0.1211 C.ar      1 <0>         0.4236
     12 C10        -1.2346    3.1487   -0.1254 C.ar      1 <0>        -0.1342
     13 C11        -1.1915    1.7581    0.0375 C.ar      1 <0>        -0.0839
     14 C12         0.0117    1.1176    0.0299 C.ar      1 <0>        -0.1259
     15 C13         1.1995    1.8228   -0.1485 C.ar      1 <0>        -0.0881
     16 C14         1.1938    3.1754   -0.3157 C.ar      1 <0>        -0.1193
     17 C15        -0.0258    3.8663   -0.3074 C.ar      1 <0>         0.0175
     18 C16        -0.0979    5.2632   -0.4755 C.ar      1 <0>        -0.1730
     19 C17        -1.3180    5.8649   -0.4565 C.ar      1 <0>         0.1331
     20 N2         -2.4387    5.1761   -0.2848 N.ar      1 <0>        -0.5390
     21 C18         1.1551    6.0771   -0.6724 C.3       1 <0>        -0.0608
     22 C19         1.5396    6.0712   -2.1532 C.3       1 <0>        -0.0704
     23 C20         2.7926    6.8851   -2.3501 C.ar      1 <0>        -0.1407
     24 C21         4.0400    6.2853   -2.2656 C.ar      1 <0>        -0.0701
     25 C22         5.1650    7.0731   -2.4537 C.ar      1 <0>        -0.1698
     26 C23         5.0071    8.4208   -2.7173 C.ar      1 <0>         0.1226
     27 N3          3.8049    8.9574   -2.7905 N.ar      1 <0>        -0.4832
     28 C24         2.7127    8.2374   -2.6228 C.ar      1 <0>         0.1077
     29 C25         6.2231    9.2869   -2.9230 C.3       1 <0>        -0.1063
     30 H1         -9.4556    4.6201    1.7255 H         1 <0>         0.0587
     31 H2         -8.6048    5.8609    2.6767 H         1 <0>         0.0553
     32 H3        -10.1559    6.2479    1.8941 H         1 <0>         0.0609
     33 H4         -8.2538    7.1983    0.6183 H         1 <0>         0.0762
     34 H5         -9.1047    5.9574   -0.3329 H         1 <0>         0.0802
     35 H6         -6.0165    6.8514    1.3798 H         1 <0>         0.1334
     36 H7         -3.9206    5.5781    1.1786 H         1 <0>         0.1425
     37 H8         -6.0344    2.4259   -0.7930 H         1 <0>         0.1324
     38 H9         -3.6675    2.2304    0.0941 H         1 <0>         0.4185
     39 H10        -2.1049    1.1978    0.1721 H         1 <0>         0.1241
     40 H11         0.0442    0.0460    0.1598 H         1 <0>         0.1279
     41 H12         2.1388    1.2899   -0.1548 H         1 <0>         0.1280
     42 H13         2.1216    3.7107   -0.4531 H         1 <0>         0.1330
     43 H14        -1.3759    6.9356   -0.5851 H         1 <0>         0.1547
     44 H15         0.9773    7.1022   -0.3472 H         1 <0>         0.0775
     45 H16         1.9651    5.6450   -0.0849 H         1 <0>         0.0738
     46 H17         1.7174    5.0461   -2.4784 H         1 <0>         0.0751
     47 H18         0.7296    6.5034   -2.7407 H         1 <0>         0.0783
     48 H19         4.1328    5.2294   -2.0585 H         1 <0>         0.1327
     49 H20         6.1524    6.6395   -2.3946 H         1 <0>         0.1344
     50 H21         1.7449    8.7111   -2.6950 H         1 <0>         0.1548
     51 H22         6.4886    9.2954   -3.9801 H         1 <0>         0.0784
     52 H23         6.0050   10.3033   -2.5950 H         1 <0>         0.0775
     53 H24         7.0553    8.8886   -2.3426 H         1 <0>         0.0747
@<TRIPOS>BOND
     1    1    2 1
     2    1   30 1
     3    1   31 1
     4    1   32 1
     5    2    3 1
     6    2   33 1
     7    2   34 1
     8    3    8 ar
     9    3    4 ar
    10    4    5 ar
    11    4   35 1
    12    5    6 ar
    13    5   36 1
    14    6    7 ar
    15    6   10 1
    16    7    8 ar
    17    7   37 1
    18    8    9 1
    19   10   11 1
    20   10   38 1
    21   11   20 ar
    22   11   12 ar
    23   12   17 ar
    24   12   13 ar
    25   13   14 ar
    26   13   39 1
    27   14   15 ar
    28   14   40 1
    29   15   16 ar
    30   15   41 1
    31   16   17 ar
    32   16   42 1
    33   17   18 ar
    34   18   19 ar
    35   18   21 1
    36   19   20 ar
    37   19   43 1
    38   21   22 1
    39   21   44 1
    40   21   45 1
    41   22   23 1
    42   22   46 1
    43   22   47 1
    44   23   28 ar
    45   23   24 ar
    46   24   25 ar
    47   24   48 1
    48   25   26 ar
    49   25   49 1
    50   26   27 ar
    51   26   29 1
    52   27   28 ar
    53   28   50 1
    54   29   51 1
    55   29   52 1
    56   29   53 1
@<TRIPOS>MOLECULE
ZINC03832391
   48    51     0     0     0
SMALL
USER_CHARGES

@<TRIPOS>ATOM
      1 C1          2.4903   10.9752   -0.0325 C.ar      1 <0>        -0.0590
      2 C2          1.9920    9.9581    0.7612 C.ar      1 <0>        -0.1278
      3 C3          0.6550    9.5929    0.5967 C.ar      1 <0>         0.2731
      4 N1         -0.0994   10.2250   -0.2940 N.ar      1 <0>        -0.2682
      5 N2          0.3589   11.1728   -1.0282 N.ar      1 <0>        -0.1543
      6 C4          1.6189   11.5837   -0.9449 C.ar      1 <0>         0.1045
      7 C5          2.1004   12.6790   -1.8123 C.2       1 <0>         0.2287
      8 N3          1.3968   13.3368   -2.7167 N.2       1 <0>        -0.4389
      9 C6          2.2425   14.2329   -3.2483 C.2       1 <0>         0.1539
     10 N4          3.3952   14.0803   -2.6660 N.2       1 <0>        -0.3744
     11 O1          3.3389   13.1952   -1.8387 O.3       1 <0>         0.0914
     12 N5          0.1136    8.5743    1.3672 N.pl3     1 <0>        -0.4656
     13 C7         -1.3012    8.3599    1.0371 C.3       1 <0>         0.0618
     14 C8         -1.9018    7.3350    2.0018 C.3       1 <0>        -0.1262
     15 C9         -1.1269    6.0193    1.8884 C.3       1 <0>         0.1436
     16 C10         0.3521    6.2780    2.1887 C.3       1 <0>        -0.1356
     17 C11         0.8870    7.3348    1.2194 C.3       1 <0>         0.0571
     18 N6         -1.6601    5.0524    2.8513 N.pl3     1 <0>        -0.7320
     19 C12        -1.5147    3.6828    2.6192 C.ar      1 <0>         0.2222
     20 C13        -2.0196    2.7647    3.5312 C.ar      1 <0>        -0.1151
     21 C14        -1.8741    1.4112    3.2986 C.ar      1 <0>        -0.1316
     22 C15        -1.2266    0.9695    2.1593 C.ar      1 <0>        -0.0881
     23 C16        -0.7223    1.8808    1.2496 C.ar      1 <0>        -0.1321
     24 C17        -0.8594    3.2358    1.4788 C.ar      1 <0>        -0.1227
     25 C18        -0.0169    1.3948    0.0097 C.3       1 <0>         0.5101
     26 F1          0.0021   -0.0041    0.0020 F         1 <0>        -0.1717
     27 F2          1.2956    1.8790   -0.0002 F         1 <0>        -0.1730
     28 F3         -0.6935    1.8582   -1.1237 F         1 <0>        -0.1726
     29 C19        -2.4220    0.4145    4.2871 C.3       1 <0>         0.5107
     30 F4         -2.1551   -0.8832    3.8376 F         1 <0>        -0.1721
     31 F5         -1.8151    0.6107    5.5323 F         1 <0>        -0.1725
     32 F6         -3.8045    0.5906    4.4093 F         1 <0>        -0.1723
     33 H1          3.5189   11.2936    0.0517 H         1 <0>         0.1669
     34 H2          2.6200    9.4583    1.4839 H         1 <0>         0.1648
     35 H3          2.0091   14.9486   -4.0227 H         1 <0>         0.2354
     36 H4         -1.3836    7.9889    0.0155 H         1 <0>         0.0624
     37 H5         -1.8415    9.3024    1.1259 H         1 <0>         0.1007
     38 H6         -2.9477    7.1645    1.7467 H         1 <0>         0.0870
     39 H7         -1.8322    7.7115    3.0224 H         1 <0>         0.0829
     40 H8         -1.2295    5.6220    0.8785 H         1 <0>         0.0838
     41 H9          0.4581    6.6374    3.2122 H         1 <0>         0.0853
     42 H10         0.9154    5.3529    2.0670 H         1 <0>         0.0830
     43 H11         0.7943    6.9686    0.1970 H         1 <0>         0.0572
     44 H12         1.9358    7.5326    1.4407 H         1 <0>         0.0942
     45 H13        -2.1141    5.3635    3.6500 H         1 <0>         0.4082
     46 H14        -2.5252    3.1090    4.4213 H         1 <0>         0.1432
     47 H15        -1.1141   -0.0895    1.9798 H         1 <0>         0.1521
     48 H16        -0.4614    3.9469    0.7701 H         1 <0>         0.1415
@<TRIPOS>BOND
     1    1    6 ar
     2    1    2 ar
     3    1   33 1
     4    2    3 ar
     5    2   34 1
     6    3    4 ar
     7    3   12 1
     8    4    5 ar
     9    5    6 ar
    10    6    7 1
    11    7   11 1
    12    7    8 2
    13    8    9 1
    14    9   10 2
    15    9   35 1
    16   10   11 1
    17   12   17 1
    18   12   13 1
    19   13   14 1
    20   13   36 1
    21   13   37 1
    22   14   15 1
    23   14   38 1
    24   14   39 1
    25   15   16 1
    26   15   18 1
    27   15   40 1
    28   16   17 1
    29   16   41 1
    30   16   42 1
    31   17   43 1
    32   17   44 1
    33   18   19 1
    34   18   45 1
    35   19   24 ar
    36   19   20 ar
    37   20   21 ar
    38   20   46 1
    39   21   22 ar
    40   21   29 1
    41   22   23 ar
    42   22   47 1
    43   23   24 ar
    44   23   25 1
    45   24   48 1
    46   25   26 1
    47   25   27 1
    48   25   28 1
    49   29   30 1
    50   29   31 1
    51   29   32 1
@<TRIPOS>MOLECULE
ZINC03832392
   70    73     0     0     0
SMALL
USER_CHARGES

@<TRIPOS>ATOM
      1 C1         -2.9722    4.0723    0.0271 C.3       1 <0>        -0.1815
      2 C2         -2.2857    4.2792    1.3787 C.3       1 <0>         0.1141
      3 C3         -3.1867    3.7474    2.4951 C.3       1 <0>        -0.1756
      4 C4         -0.9743    3.5367    1.3950 C.ar      1 <0>        -0.1045
      5 C5         -0.8257    2.3845    0.6438 C.ar      1 <0>        -0.0931
      6 C6          0.3706    1.6971    0.6591 C.ar      1 <0>        -0.0509
      7 C7          1.4350    2.1726    1.4248 C.ar      1 <0>        -0.0478
      8 C8          1.2809    3.3380    2.1755 C.ar      1 <0>        -0.0717
      9 C9          0.0778    4.0134    2.1565 C.ar      1 <0>        -0.1236
     10 C10         2.7240    1.4432    1.4404 C.ar      1 <0>         0.3078
     11 C11         3.9464    2.1452    1.5259 C.ar      1 <0>        -0.1708
     12 C12         5.1337    1.4038    1.5414 C.ar      1 <0>         0.2537
     13 N1          5.0691    0.0873    1.4663 N.ar      1 <0>        -0.5516
     14 C13         3.9024   -0.5390    1.3819 C.ar      1 <0>         0.5848
     15 N2          2.7516    0.1166    1.3687 N.ar      1 <0>        -0.5443
     16 N3          3.8875   -1.9188    1.3049 N.pl3     1 <0>        -0.6294
     17 C14         5.0890   -2.6261    1.2006 C.ar      1 <0>         0.1851
     18 C15         6.1580   -2.0826    0.4998 C.ar      1 <0>        -0.1098
     19 C16         7.3455   -2.7812    0.4040 C.ar      1 <0>        -0.0845
     20 C17         7.4668   -4.0259    0.9942 C.ar      1 <0>        -0.1354
     21 C18         6.4025   -4.5724    1.6878 C.ar      1 <0>        -0.0808
     22 C19         5.2143   -3.8763    1.7927 C.ar      1 <0>        -0.1391
     23 C20         8.7618   -4.7883    0.8818 C.3       1 <0>        -0.0961
     24 C21         8.7287   -5.6681   -0.3695 C.3       1 <0>        -0.0050
     25 C22        11.1184   -5.5012   -0.7252 C.3       1 <0>        -0.0325
     26 C23        12.4215   -6.3034   -0.7536 C.3       1 <0>        -0.0267
     27 C24        11.2116   -8.2404   -1.5554 C.3       1 <0>        -0.0270
     28 C25         9.9085   -7.4382   -1.5271 C.3       1 <0>        -0.0263
     29 C26        13.6012   -8.0734   -1.9112 C.3       1 <0>        -0.0466
     30 C27         3.9705    3.5751    1.5999 C.1       1 <0>         0.2538
     31 N4          3.9896    4.7094    1.6586 N.1       1 <0>        -0.3851
     32 H1         -3.1547    3.0090   -0.1287 H         1 <0>         0.1096
     33 H2         -3.9206    4.6092    0.0154 H         1 <0>         0.0918
     34 H3         -2.3303    4.4511   -0.7682 H         1 <0>         0.0869
     35 H4         -2.6976    3.8947    3.4580 H         1 <0>         0.0847
     36 H5         -4.1352    4.2843    2.4834 H         1 <0>         0.0910
     37 H6         -3.3692    2.6841    2.3393 H         1 <0>         0.1083
     38 H7         -1.6492    2.0198    0.0478 H         1 <0>         0.1470
     39 H8          0.4840    0.7953    0.0759 H         1 <0>         0.1471
     40 H9          2.1016    3.7113    2.7700 H         1 <0>         0.1376
     41 H10        -0.0427    4.9161    2.7370 H         1 <0>         0.1285
     42 H11         6.0894    1.9020    1.6097 H         1 <0>         0.1911
     43 H12         3.0435   -2.3965    1.3233 H         1 <0>         0.4330
     44 H13         6.0624   -1.1127    0.0345 H         1 <0>         0.1418
     45 H14         8.1787   -2.3571   -0.1367 H         1 <0>         0.1272
     46 H15         6.5007   -5.5443    2.1482 H         1 <0>         0.1305
     47 H16         4.3836   -4.3035    2.3348 H         1 <0>         0.1361
     48 H17         9.5920   -4.0857    0.8100 H         1 <0>         0.0943
     49 H18         8.8919   -5.4156    1.7637 H         1 <0>         0.0984
     50 H19         7.8985   -6.3708   -0.2977 H         1 <0>         0.1436
     51 H20         8.5987   -5.0409   -1.2514 H         1 <0>         0.1415
     52 H21        10.9788   -5.0003   -1.6832 H         1 <0>         0.1568
     53 H22        11.1662   -4.7579    0.0706 H         1 <0>         0.1750
     54 H23        12.5748   -6.7823    0.2135 H         1 <0>         0.1561
     55 H24        13.2558   -5.6345   -0.9648 H         1 <0>         0.1753
     56 H25        11.3511   -8.7413   -0.5975 H         1 <0>         0.1561
     57 H26        11.1637   -8.9839   -2.3510 H         1 <0>         0.1756
     58 H27         9.0742   -8.1070   -1.3159 H         1 <0>         0.1748
     59 H28         9.7548   -6.9593   -2.4941 H         1 <0>         0.1560
     60 H29        13.5360   -8.7806   -2.7381 H         1 <0>         0.1366
     61 H30        14.4189   -7.3760   -2.0932 H         1 <0>         0.1364
     62 H31        13.7856   -8.6152   -0.9835 H         1 <0>         0.1332
     63 H32        -1.6456    5.8813    2.5021 H         1 <0>         0.4351
     64 H33        -1.4466    6.0872    0.8638 H         1 <0>         0.4389
     65 N5          9.9963   -6.4244   -0.4549 N.4       1 <0>        -0.4072
     66 H34        10.1627   -6.8988    0.4403 H         1 <0>         0.4378
     67 N6         12.3338   -7.3170   -1.8256 N.4       1 <0>        -0.4063
     68 H35        12.1674   -6.8424   -2.7208 H         1 <0>         0.4403
     69 N7         -2.0634    5.7209    1.5870 N.4       1 <0>        -0.6447
     70 H36        -2.9641    6.2116    1.5393 H         1 <0>         0.4446
@<TRIPOS>BOND
     1    1    2 1
     2    1   32 1
     3    1   33 1
     4    1   34 1
     5    2    3 1
     6    2    4 1
     7    2   69 1
     8    3   35 1
     9    3   36 1
    10    3   37 1
    11    4    9 ar
    12    4    5 ar
    13    5    6 ar
    14    5   38 1
    15    6    7 ar
    16    6   39 1
    17    7    8 ar
    18    7   10 1
    19    8    9 ar
    20    8   40 1
    21    9   41 1
    22   10   15 ar
    23   10   11 ar
    24   11   12 ar
    25   11   30 1
    26   12   13 ar
    27   12   42 1
    28   13   14 ar
    29   14   15 ar
    30   14   16 1
    31   16   17 1
    32   16   43 1
    33   17   22 ar
    34   17   18 ar
    35   18   19 ar
    36   18   44 1
    37   19   20 ar
    38   19   45 1
    39   20   21 ar
    40   20   23 1
    41   21   22 ar
    42   21   46 1
    43   22   47 1
    44   23   24 1
    45   23   48 1
    46   23   49 1
    47   24   50 1
    48   24   51 1
    49   24   65 1
    50   25   26 1
    51   25   52 1
    52   25   53 1
    53   25   65 1
    54   26   54 1
    55   26   55 1
    56   26   67 1
    57   27   28 1
    58   27   56 1
    59   27   57 1
    60   27   67 1
    61   28   58 1
    62   28   59 1
    63   28   65 1
    64   29   60 1
    65   29   61 1
    66   29   62 1
    67   29   67 1
    68   30   31 3
    69   63   69 1
    70   64   69 1
    71   65   66 1
    72   67   68 1
    73   69   70 1
@<TRIPOS>MOLECULE
ZINC03832393
   43    45     0     0     0
SMALL
USER_CHARGES

@<TRIPOS>ATOM
      1 C1         -4.7146    5.4431    0.4386 C.3       1 <0>         0.0235
      2 O1         -3.4997    6.1955    0.4345 O.3       1 <0>        -0.2982
      3 C2         -2.3395    5.4941    0.3271 C.ar      1 <0>         0.1713
      4 C3         -2.3717    4.1120    0.2280 C.ar      1 <0>        -0.2593
      5 C4         -1.1874    3.3958    0.1188 C.ar      1 <0>         0.2327
      6 C5          0.0301    4.0628    0.1146 C.ar      1 <0>        -0.2265
      7 C6          0.0637    5.4453    0.2079 C.ar      1 <0>         0.1703
      8 C7         -1.1214    6.1630    0.3172 C.ar      1 <0>         0.0150
      9 O2         -1.0890    7.5209    0.4141 O.3       1 <0>        -0.3103
     10 C8         -1.0127    8.0758    1.7288 C.3       1 <0>         0.0344
     11 O3          1.2562    6.0989    0.1981 O.3       1 <0>        -0.2979
     12 C9          2.4341    5.2979    0.0830 C.3       1 <0>         0.0254
     13 N1         -1.2208    1.9995    0.0187 N.pl3     1 <0>        -0.6228
     14 C10        -0.2685    1.3381   -0.7317 C.ar      1 <0>         0.6011
     15 N2          0.6108    2.0303   -1.4525 N.ar      1 <0>        -0.5948
     16 C11         1.5188    1.3988   -2.1750 C.ar      1 <0>         0.3831
     17 N3          1.5585    0.0777   -2.1856 N.ar      1 <0>        -0.5833
     18 C12         0.6826   -0.6221   -1.4674 C.ar      1 <0>         0.4503
     19 N4         -0.2324    0.0099   -0.7393 N.ar      1 <0>        -0.5920
     20 C13         0.7280   -2.1040   -1.4794 C.ar      1 <0>        -0.0649
     21 C14        -0.1844   -2.8381   -0.7232 C.ar      1 <0>        -0.0615
     22 C15        -0.1407   -4.2173   -0.7423 C.ar      1 <0>        -0.1333
     23 C16         0.8133   -4.8713   -1.5011 C.ar      1 <0>        -0.0881
     24 C17         1.7246   -4.1480   -2.2494 C.ar      1 <0>        -0.1327
     25 C18         1.6869   -2.7685   -2.2425 C.ar      1 <0>        -0.0587
     26 H1         -4.7111    4.7520    1.2815 H         1 <0>         0.0575
     27 H2         -5.5623    6.1223    0.5292 H         1 <0>         0.1047
     28 H3         -4.7971    4.8812   -0.4917 H         1 <0>         0.0584
     29 H4         -3.3182    3.5920    0.2360 H         1 <0>         0.1393
     30 H5          0.9512    3.5045    0.0344 H         1 <0>         0.1488
     31 H6         -1.8818    7.7616    2.3068 H         1 <0>         0.0437
     32 H7         -0.1044    7.7255    2.2189 H         1 <0>         0.0439
     33 H8         -0.9938    9.1637    1.6634 H         1 <0>         0.0926
     34 H9          2.4863    4.6058    0.9235 H         1 <0>         0.0532
     35 H10         2.4009    4.7350   -0.8497 H         1 <0>         0.0624
     36 H11         3.3134    5.9421    0.0876 H         1 <0>         0.1037
     37 H12        -1.9127    1.4968    0.4763 H         1 <0>         0.4290
     38 H13         2.2305    1.9636   -2.7589 H         1 <0>         0.2129
     39 H14        -0.9267   -2.3285   -0.1266 H         1 <0>         0.1366
     40 H15        -0.8497   -4.7872   -0.1600 H         1 <0>         0.1304
     41 H16         0.8466   -5.9507   -1.5095 H         1 <0>         0.1284
     42 H17         2.4668   -4.6638   -2.8405 H         1 <0>         0.1315
     43 H18         2.3986   -2.2048   -2.8274 H         1 <0>         0.1401
@<TRIPOS>BOND
     1    1    2 1
     2    1   26 1
     3    1   27 1
     4    1   28 1
     5    2    3 1
     6    3    8 ar
     7    3    4 ar
     8    4    5 ar
     9    4   29 1
    10    5    6 ar
    11    5   13 1
    12    6    7 ar
    13    6   30 1
    14    7    8 ar
    15    7   11 1
    16    8    9 1
    17    9   10 1
    18   10   31 1
    19   10   32 1
    20   10   33 1
    21   11   12 1
    22   12   34 1
    23   12   35 1
    24   12   36 1
    25   13   14 1
    26   13   37 1
    27   14   19 ar
    28   14   15 ar
    29   15   16 ar
    30   16   17 ar
    31   16   38 1
    32   17   18 ar
    33   18   19 ar
    34   18   20 1
    35   20   25 ar
    36   20   21 ar
    37   21   22 ar
    38   21   39 1
    39   22   23 ar
    40   22   40 1
    41   23   24 ar
    42   23   41 1
    43   24   25 ar
    44   24   42 1
    45   25   43 1
@<TRIPOS>MOLECULE
ZINC03832394
   41    43     0     0     0
SMALL
USER_CHARGES

@<TRIPOS>ATOM
      1 C1         -0.9649    1.7613   -0.7656 C.ar      1 <0>        -0.0971
      2 C2         -0.0193    1.0784   -0.0223 C.ar      1 <0>        -0.0856
      3 C3          0.9064    1.7752    0.7322 C.ar      1 <0>        -0.1622
      4 C4          0.8961    3.1564    0.7376 C.ar      1 <0>        -0.0717
      5 C5         -0.0520    3.8451   -0.0075 C.ar      1 <0>         0.1458
      6 C6         -0.9840    3.1420   -0.7603 C.ar      1 <0>        -0.1109
      7 N1         -0.0689    5.2435    0.0004 N.am      1 <0>        -0.6652
      8 C7          1.0849    5.9307    0.1142 C.2       1 <0>         0.5859
      9 O1          2.1474    5.3391    0.1156 O.2       1 <0>        -0.5253
     10 C8          1.0590    7.3995    0.2370 C.ar      1 <0>        -0.3275
     11 C9         -0.1500    8.0904    0.3581 C.ar      1 <0>         0.2275
     12 N2         -0.1272    9.4079    0.4657 N.ar      1 <0>        -0.5652
     13 C10         1.0117   10.0746    0.4605 C.ar      1 <0>         0.3724
     14 N3          2.1774    9.4725    0.3489 N.ar      1 <0>        -0.5788
     15 C11         2.2537    8.1492    0.2415 C.ar      1 <0>         0.4895
     16 N4          3.4769    7.5226    0.1309 N.pl3     1 <0>        -0.6794
     17 C12         4.7012    8.3199    0.0224 C.3       1 <0>         0.1611
     18 C13         5.8909    7.4012   -0.0858 C.ar      1 <0>        -0.0685
     19 C14         6.5611    6.9713    1.0493 C.ar      1 <0>        -0.1521
     20 C15         7.6456    6.1257    0.9113 C.ar      1 <0>         0.1006
     21 N5          8.0496    5.7362   -0.2820 N.ar      1 <0>        -0.4770
     22 C16         7.4393    6.1287   -1.3831 C.ar      1 <0>         0.1003
     23 C17         6.3449    6.9705   -1.3230 C.ar      1 <0>        -0.1523
     24 C18         1.9313    1.0269    1.5450 C.3       1 <0>         0.5088
     25 F1          1.7463   -0.3495    1.3758 F         1 <0>        -0.1753
     26 F2          3.2152    1.3810    1.1167 F         1 <0>        -0.1728
     27 F3          1.7839    1.3545    2.8971 F         1 <0>        -0.1756
     28 H1         -1.6894    1.2140   -1.3504 H         1 <0>         0.1428
     29 H2         -0.0067   -0.0015   -0.0279 H         1 <0>         0.1423
     30 H3          1.6218    3.7001    1.3242 H         1 <0>         0.1456
     31 H4         -1.7224    3.6747   -1.3412 H         1 <0>         0.1386
     32 H5         -0.9110    5.7189   -0.0761 H         1 <0>         0.4154
     33 H6         -1.0885    7.5561    0.3634 H         1 <0>         0.1675
     34 H7          0.9868   11.1505    0.5510 H         1 <0>         0.2042
     35 H8          3.5268    6.5539    0.1248 H         1 <0>         0.4299
     36 H9          4.6469    8.9501   -0.8653 H         1 <0>         0.0845
     37 H10         4.8058    8.9472    0.9076 H         1 <0>         0.0871
     38 H11         6.2378    7.2905    2.0291 H         1 <0>         0.1372
     39 H12         8.1710    5.7836    1.7907 H         1 <0>         0.1596
     40 H13         7.7991    5.7887   -2.3429 H         1 <0>         0.1593
     41 H14         5.8497    7.2891   -2.2284 H         1 <0>         0.1365
@<TRIPOS>BOND
     1    1    6 ar
     2    1    2 ar
     3    1   28 1
     4    2    3 ar
     5    2   29 1
     6    3    4 ar
     7    3   24 1
     8    4    5 ar
     9    4   30 1
    10    5    6 ar
    11    5    7 1
    12    6   31 1
    13    7    8 am
    14    7   32 1
    15    8    9 2
    16    8   10 1
    17   10   15 ar
    18   10   11 ar
    19   11   12 ar
    20   11   33 1
    21   12   13 ar
    22   13   14 ar
    23   13   34 1
    24   14   15 ar
    25   15   16 1
    26   16   17 1
    27   16   35 1
    28   17   18 1
    29   17   36 1
    30   17   37 1
    31   18   23 ar
    32   18   19 ar
    33   19   20 ar
    34   19   38 1
    35   20   21 ar
    36   20   39 1
    37   21   22 ar
    38   22   23 ar
    39   22   40 1
    40   23   41 1
    41   24   25 1
    42   24   26 1
    43   24   27 1
@<TRIPOS>MOLECULE
ZINC03832396
   32    35     0     0     0
SMALL
USER_CHARGES

@<TRIPOS>ATOM
      1 C1          2.7624    6.8756    0.0161 C.ar      1 <0>        -0.1705
      2 C2          3.3979    8.1000    0.0103 C.ar      1 <0>         0.1124
      3 N1          2.7049    9.2227    0.0217 N.ar      1 <0>        -0.4826
      4 C3          1.3856    9.2301    0.0336 C.ar      1 <0>         0.1119
      5 C4          0.6709    8.0501    0.0346 C.ar      1 <0>        -0.1627
      6 C5          1.3651    6.8369    0.0227 C.ar      1 <0>         0.0139
      7 C6          0.6387    5.5434    0.0232 C.2       1 <0>        -0.1541
      8 C7         -0.7725    5.5161    0.0362 C.2       1 <0>         0.2009
      9 N2         -1.4074    4.3683    0.0369 N.2       1 <0>        -0.4504
     10 C8         -0.7383    3.2108    0.0255 C.2       1 <0>         0.2747
     11 C9         -1.1624    1.8751    0.0171 C.2       1 <0>        -0.1999
     12 C10        -0.0126    1.0758    0.0080 C.2       1 <0>         0.1198
     13 N3          1.0425    1.8526    0.0021 N.2       1 <0>        -0.3011
     14 N4          0.6315    3.1902    0.0127 N.pl3     1 <0>        -0.3084
     15 C11         1.3278    4.3621    0.0114 C.2       1 <0>         0.1877
     16 C12        -2.5630    1.3985    0.0208 C.ar      1 <0>         0.0497
     17 C13        -3.4874    1.8889    0.9509 C.ar      1 <0>        -0.1523
     18 C14        -4.7832    1.4206    0.9159 C.ar      1 <0>         0.1019
     19 N5         -5.1533    0.5160    0.0285 N.ar      1 <0>        -0.4894
     20 C15        -4.3127    0.0241   -0.8627 C.ar      1 <0>         0.1014
     21 C16        -2.9993    0.4403   -0.9020 C.ar      1 <0>        -0.1659
     22 H1          3.3359    5.9605    0.0117 H         1 <0>         0.1370
     23 H2          4.4771    8.1401    0.0004 H         1 <0>         0.1622
     24 H3          0.8581   10.1725    0.0431 H         1 <0>         0.1634
     25 H4         -0.4090    8.0635    0.0440 H         1 <0>         0.1420
     26 H5         -1.3300    6.4410    0.0451 H         1 <0>         0.1865
     27 H6          0.0021   -0.0041    0.0020 H         1 <0>         0.2065
     28 H7          2.4077    4.3578    0.0017 H         1 <0>         0.1862
     29 H8         -3.1905    2.6259    1.6824 H         1 <0>         0.1314
     30 H9         -5.5044    1.7953    1.6271 H         1 <0>         0.1562
     31 H10        -4.6587   -0.7147   -1.5704 H         1 <0>         0.1569
     32 H11        -2.3171    0.0335   -1.6338 H         1 <0>         0.1346
@<TRIPOS>BOND
     1    1    6 ar
     2    1    2 ar
     3    1   22 1
     4    2    3 ar
     5    2   23 1
     6    3    4 ar
     7    4    5 ar
     8    4   24 1
     9    5    6 ar
    10    5   25 1
    11    6    7 1
    12    7   15 2
    13    7    8 1
    14    8    9 2
    15    8   26 1
    16    9   10 1
    17   10   14 1
    18   10   11 2
    19   11   12 1
    20   11   16 1
    21   12   13 2
    22   12   27 1
    23   13   14 1
    24   14   15 1
    25   15   28 1
    26   16   21 ar
    27   16   17 ar
    28   17   18 ar
    29   17   29 1
    30   18   19 ar
    31   18   30 1
    32   19   20 ar
    33   20   21 ar
    34   20   31 1
    35   21   32 1
@<TRIPOS>MOLECULE
ZINC03832397
   45    47     0     0     0
SMALL
USER_CHARGES

@<TRIPOS>ATOM
      1 C1          1.0734    4.8971    6.0123 C.3       1 <0>        -0.1525
      2 C2          1.0128    4.4233    4.5588 C.3       1 <0>         0.0511
      3 O1         -0.1573    3.6259    4.3661 O.3       1 <0>        -0.2978
      4 C3         -0.3629    3.1225    3.1197 C.ar      1 <0>         0.1295
      5 C4          0.5337    3.3903    2.1257 C.ar      1 <0>        -0.1587
      6 C5          0.3244    2.8723    0.8391 C.ar      1 <0>        -0.0988
      7 C6         -0.8146    2.0735    0.5756 C.ar      1 <0>         0.1660
      8 C7         -1.7215    1.8120    1.6140 C.ar      1 <0>        -0.1766
      9 C8         -1.4931    2.3325    2.8675 C.ar      1 <0>         0.1547
     10 O2         -2.3723    2.0776    3.8714 O.3       1 <0>        -0.2962
     11 C9         -3.5041    1.2659    3.5519 C.3       1 <0>         0.0195
     12 N1         -1.0230    1.5789   -0.6536 N.ar      1 <0>        -0.4626
     13 C10        -0.1930    1.8011   -1.6404 C.ar      1 <0>         0.1791
     14 C11         0.9615    2.5820   -1.4694 C.ar      1 <0>        -0.0892
     15 C12         1.2366    3.1341   -0.2093 C.ar      1 <0>         0.2664
     16 N2          2.3612    3.9073    0.0004 N.pl3     1 <0>        -0.7057
     17 C13         3.5575    3.3063    0.4005 C.ar      1 <0>         0.2130
     18 C14         3.5859    1.9520    0.7115 C.ar      1 <0>        -0.1833
     19 C15         4.7697    1.3570    1.1014 C.ar      1 <0>        -0.0599
     20 C16         5.9262    2.1084    1.1944 C.ar      1 <0>        -0.1518
     21 C17         5.9026    3.4623    0.8907 C.ar      1 <0>         0.1479
     22 C18         4.7179    4.0622    0.4935 C.ar      1 <0>        -0.2017
     23 O3          7.0406    4.1995    0.9823 O.3       1 <0>        -0.4944
     24 C19         7.2143    1.4565    1.6268 C.3       1 <0>        -0.1084
     25 C20         1.8484    2.8128   -2.5698 C.1       1 <0>         0.2545
     26 N3          2.5520    2.9959   -3.4426 N.1       1 <0>        -0.3946
     27 H1          1.9659    5.5053    6.1592 H         1 <0>         0.0806
     28 H2          0.1877    5.4911    6.2380 H         1 <0>         0.0685
     29 H3          1.1096    4.0326    6.6751 H         1 <0>         0.0687
     30 H4          1.8984    3.8293    4.3330 H         1 <0>         0.0651
     31 H5          0.9765    5.2879    3.8960 H         1 <0>         0.0639
     32 H6          1.4018    3.9996    2.3293 H         1 <0>         0.1474
     33 H7         -2.5952    1.2043    1.4304 H         1 <0>         0.1573
     34 H8         -4.1236    1.1405    4.4400 H         1 <0>         0.1073
     35 H9         -4.0872    1.7481    2.7673 H         1 <0>         0.0626
     36 H10        -3.1649    0.2899    3.2048 H         1 <0>         0.0627
     37 H11        -0.4032    1.3773   -2.6113 H         1 <0>         0.1737
     38 H12         2.3208    4.8676   -0.1300 H         1 <0>         0.4174
     39 H13         2.6828    1.3636    0.6439 H         1 <0>         0.1220
     40 H14         4.7910    0.3036    1.3383 H         1 <0>         0.1292
     41 H15         4.6977    5.1159    0.2571 H         1 <0>         0.1301
     42 H16         7.1816    4.5989    1.8516 H         1 <0>         0.3917
     43 H17         7.3051    1.5154    2.7114 H         1 <0>         0.0658
     44 H18         7.2137    0.4110    1.3185 H         1 <0>         0.0653
     45 H19         8.0556    1.9716    1.1632 H         1 <0>         0.0710
@<TRIPOS>BOND
     1    1    2 1
     2    1   27 1
     3    1   28 1
     4    1   29 1
     5    2    3 1
     6    2   30 1
     7    2   31 1
     8    3    4 1
     9    4    9 ar
    10    4    5 ar
    11    5    6 ar
    12    5   32 1
    13    6   15 ar
    14    6    7 ar
    15    7    8 ar
    16    7   12 ar
    17    8    9 ar
    18    8   33 1
    19    9   10 1
    20   10   11 1
    21   11   34 1
    22   11   35 1
    23   11   36 1
    24   12   13 ar
    25   13   14 ar
    26   13   37 1
    27   14   15 ar
    28   14   25 1
    29   15   16 1
    30   16   17 1
    31   16   38 1
    32   17   22 ar
    33   17   18 ar
    34   18   19 ar
    35   18   39 1
    36   19   20 ar
    37   19   40 1
    38   20   21 ar
    39   20   24 1
    40   21   22 ar
    41   21   23 1
    42   22   41 1
    43   23   42 1
    44   24   43 1
    45   24   44 1
    46   24   45 1
    47   25   26 3
@<TRIPOS>MOLECULE
ZINC03832398
   43    46     0     0     0
SMALL
USER_CHARGES

@<TRIPOS>ATOM
      1 C1          3.3523   -3.3683   -0.8375 C.ar      1 <0>        -0.0891
      2 C2          4.6127   -3.9613   -0.8374 C.ar      1 <0>        -0.1031
      3 C3          5.7380   -3.2223   -1.0552 C.ar      1 <0>        -0.0889
      4 C4          5.6232   -1.8468   -1.2813 C.ar      1 <0>        -0.1049
      5 C5          4.3394   -1.2415   -1.2816 C.ar      1 <0>        -0.0398
      6 C6          3.2044   -2.0306   -1.0549 C.ar      1 <0>        -0.0974
      7 C7          4.2687    0.1445   -1.5139 C.ar      1 <0>         0.0644
      8 N1          5.3786    0.8143   -1.7242 N.ar      1 <0>        -0.2164
      9 N2          6.5410    0.2762   -1.7201 N.ar      1 <0>        -0.3154
     10 C8          6.7412   -1.0141   -1.5147 C.ar      1 <0>         0.3606
     11 N3          8.0229   -1.5405   -1.5283 N.pl3     1 <0>        -0.6433
     12 C9          9.1268   -0.6900   -1.6397 C.ar      1 <0>         0.1609
     13 C10        10.2516   -1.0984   -2.3452 C.ar      1 <0>        -0.1365
     14 C11        11.3384   -0.2538   -2.4585 C.ar      1 <0>        -0.0881
     15 C12        11.3120    0.9939   -1.8604 C.ar      1 <0>        -0.0510
     16 C13        10.1950    1.4011   -1.1522 C.ar      1 <0>        -0.0861
     17 C14         9.1031    0.5630   -1.0404 C.ar      1 <0>        -0.1013
     18 Cl1        12.6825    2.0503   -1.9993 Cl        1 <0>        -0.0691
     19 C15         2.9370    0.8497   -1.5273 C.3       1 <0>        -0.0531
     20 C16         2.6009    1.3317   -0.1146 C.3       1 <0>        -0.0760
     21 C17         1.2691    2.0369   -0.1281 C.ar      1 <0>        -0.0377
     22 C18         0.0926    1.3358    0.0875 C.ar      1 <0>        -0.1720
     23 C19        -1.1107    2.0152    0.0617 C.ar      1 <0>         0.1003
     24 N4         -1.1464    3.3157   -0.1537 N.ar      1 <0>        -0.4886
     25 C20        -0.0477    4.0145   -0.3621 C.ar      1 <0>         0.1015
     26 C21         1.1912    3.4022   -0.3567 C.ar      1 <0>        -0.1679
     27 H1          2.4782   -3.9781   -0.6630 H         1 <0>         0.1356
     28 H2          4.7002   -5.0235   -0.6624 H         1 <0>         0.1350
     29 H3          6.7092   -3.6947   -1.0525 H         1 <0>         0.1311
     30 H4          2.2214   -1.5834   -1.0520 H         1 <0>         0.1418
     31 H5          8.1542   -2.4992   -1.4606 H         1 <0>         0.4197
     32 H6         10.2744   -2.0738   -2.8084 H         1 <0>         0.1339
     33 H7         12.2113   -0.5690   -3.0109 H         1 <0>         0.1378
     34 H8         10.1770    2.3755   -0.6867 H         1 <0>         0.1376
     35 H9          8.2315    0.8815   -0.4879 H         1 <0>         0.1419
     36 H10         2.1646    0.1610   -1.8696 H         1 <0>         0.0856
     37 H11         2.9856    1.7051   -2.2011 H         1 <0>         0.0922
     38 H12         3.3733    2.0205    0.2276 H         1 <0>         0.0845
     39 H13         2.5523    0.4763    0.5592 H         1 <0>         0.0786
     40 H14         0.1157    0.2713    0.2688 H         1 <0>         0.1339
     41 H15        -2.0320    1.4755    0.2242 H         1 <0>         0.1556
     42 H16        -0.1169    5.0776   -0.5394 H         1 <0>         0.1564
     43 H17         2.0874    3.9798   -0.5287 H         1 <0>         0.1369
@<TRIPOS>BOND
     1    1    6 ar
     2    1    2 ar
     3    1   27 1
     4    2    3 ar
     5    2   28 1
     6    3    4 ar
     7    3   29 1
     8    4   10 ar
     9    4    5 ar
    10    5    6 ar
    11    5    7 ar
    12    6   30 1
    13    7    8 ar
    14    7   19 1
    15    8    9 ar
    16    9   10 ar
    17   10   11 1
    18   11   12 1
    19   11   31 1
    20   12   17 ar
    21   12   13 ar
    22   13   14 ar
    23   13   32 1
    24   14   15 ar
    25   14   33 1
    26   15   16 ar
    27   15   18 1
    28   16   17 ar
    29   16   34 1
    30   17   35 1
    31   19   20 1
    32   19   36 1
    33   19   37 1
    34   20   21 1
    35   20   38 1
    36   20   39 1
    37   21   26 ar
    38   21   22 ar
    39   22   23 ar
    40   22   40 1
    41   23   24 ar
    42   23   41 1
    43   24   25 ar
    44   25   26 ar
    45   25   42 1
    46   26   43 1
@<TRIPOS>MOLECULE
ZINC03832399
   44    47     0     0     0
SMALL
USER_CHARGES

@<TRIPOS>ATOM
      1 C1          4.9359   -2.7638   -0.4949 C.3       1 <0>        -0.1119
      2 C2          3.6252   -2.0319   -0.3622 C.ar      1 <0>        -0.1244
      3 C3          3.5003   -0.7457   -0.8528 C.ar      1 <0>        -0.0825
      4 C4          2.2994   -0.0734   -0.7375 C.ar      1 <0>        -0.1173
      5 C5          1.2160   -0.6857   -0.1187 C.ar      1 <0>         0.1645
      6 C6          1.3397   -1.9774    0.3740 C.ar      1 <0>        -0.1727
      7 C7          2.5453   -2.6504    0.2519 C.ar      1 <0>         0.1238
      8 O1          2.6699   -3.9150    0.7337 O.3       1 <0>        -0.4938
      9 N1          0.0021   -0.0041    0.0020 N.pl3     1 <0>        -0.6409
     10 C8         -0.0064    1.3715    0.1702 C.ar      1 <0>         0.3639
     11 C9         -1.2247    2.0888    0.1763 C.ar      1 <0>        -0.1057
     12 C10        -2.4692    1.4681    0.0285 C.ar      1 <0>        -0.0875
     13 C11        -3.6027    2.2263    0.0519 C.ar      1 <0>        -0.1040
     14 C12        -3.5402    3.6069    0.2253 C.ar      1 <0>        -0.0876
     15 C13        -2.3440    4.2431    0.3775 C.ar      1 <0>        -0.1003
     16 C14        -1.1602    3.4946    0.3589 C.ar      1 <0>        -0.0362
     17 C15         0.1117    4.0780    0.5098 C.ar      1 <0>         0.0647
     18 N2          1.1749    3.3080    0.4815 N.ar      1 <0>        -0.2121
     19 N3          1.1244    2.0381    0.3226 N.ar      1 <0>        -0.3144
     20 C16         0.2514    5.5662    0.7016 C.3       1 <0>        -0.0229
     21 C17         0.3860    6.2355   -0.6419 C.ar      1 <0>        -0.0357
     22 C18         1.6334    6.4371   -1.2126 C.ar      1 <0>        -0.1574
     23 C19         1.7175    7.0505   -2.4482 C.ar      1 <0>         0.1004
     24 N4          0.6302    7.4505   -3.0781 N.ar      1 <0>        -0.4859
     25 C20        -0.5718    7.2794   -2.5635 C.ar      1 <0>         0.0993
     26 C21        -0.7342    6.6694   -1.3341 C.ar      1 <0>        -0.1703
     27 H1          4.9505   -3.3154   -1.4348 H         1 <0>         0.0682
     28 H2          5.7559   -2.0457   -0.4823 H         1 <0>         0.0678
     29 H3          5.0493   -3.4594    0.3365 H         1 <0>         0.0724
     30 H4          4.3421   -0.2671   -1.3309 H         1 <0>         0.1314
     31 H5          2.2031    0.9300   -1.1253 H         1 <0>         0.1387
     32 H6          0.4981   -2.4573    0.8513 H         1 <0>         0.1299
     33 H7          2.4467   -4.6038    0.0927 H         1 <0>         0.3900
     34 H8         -0.8346   -0.4937   -0.0319 H         1 <0>         0.4184
     35 H9         -2.5319    0.3984   -0.1067 H         1 <0>         0.1311
     36 H10        -4.5641    1.7486   -0.0664 H         1 <0>         0.1352
     37 H11        -4.4538    4.1826    0.2391 H         1 <0>         0.1361
     38 H12        -2.3096    5.3142    0.5116 H         1 <0>         0.1408
     39 H13        -0.6312    5.9512    1.2125 H         1 <0>         0.0972
     40 H14         1.1377    5.7737    1.3013 H         1 <0>         0.1041
     41 H15         2.5279    6.1158   -0.6996 H         1 <0>         0.1397
     42 H16         2.6852    7.2082   -2.9011 H         1 <0>         0.1571
     43 H17        -1.4394    7.6203   -3.1090 H         1 <0>         0.1557
     44 H18        -1.7213    6.5328   -0.9176 H         1 <0>         0.1330
@<TRIPOS>BOND
     1    1    2 1
     2    1   27 1
     3    1   28 1
     4    1   29 1
     5    2    7 ar
     6    2    3 ar
     7    3    4 ar
     8    3   30 1
     9    4    5 ar
    10    4   31 1
    11    5    6 ar
    12    5    9 1
    13    6    7 ar
    14    6   32 1
    15    7    8 1
    16    8   33 1
    17    9   10 1
    18    9   34 1
    19   10   19 ar
    20   10   11 ar
    21   11   16 ar
    22   11   12 ar
    23   12   13 ar
    24   12   35 1
    25   13   14 ar
    26   13   36 1
    27   14   15 ar
    28   14   37 1
    29   15   16 ar
    30   15   38 1
    31   16   17 ar
    32   17   18 ar
    33   17   20 1
    34   18   19 ar
    35   20   21 1
    36   20   39 1
    37   20   40 1
    38   21   26 ar
    39   21   22 ar
    40   22   23 ar
    41   22   41 1
    42   23   24 ar
    43   23   42 1
    44   24   25 ar
    45   25   26 ar
    46   25   43 1
    47   26   44 1
@<TRIPOS>MOLECULE
ZINC03832400
   74    77     0     0     0
SMALL
USER_CHARGES

@<TRIPOS>ATOM
      1 C1          7.4364    5.4025    0.5557 C.3       1 <0>        -0.1633
      2 C2          7.6052    4.7565    1.9323 C.3       1 <0>         0.0965
      3 N1          8.3983    3.5315    1.8030 N.am      1 <0>        -0.5034
      4 C3          7.7675    2.3356    1.5702 C.ar      1 <0>         0.4655
      5 C4          8.5172    1.1460    1.4425 C.ar      1 <0>        -0.2690
      6 C5          9.9259    1.1777    1.5537 C.2       1 <0>         0.0119
      7 C6         10.5466    2.3758    1.7861 C.2       1 <0>        -0.1446
      8 C7          9.7394    3.5909    1.9134 C.2       1 <0>         0.5489
      9 O1         10.2836    4.6609    2.1205 O.2       1 <0>        -0.4928
     10 C8         12.0219    2.4423    1.9072 C.ar      1 <0>         0.0432
     11 C9         12.6076    2.8155    3.1159 C.ar      1 <0>        -0.1568
     12 C10        13.9873    2.8719    3.2268 C.ar      1 <0>         0.1691
     13 C11        14.7858    2.5673    2.1340 C.ar      1 <0>        -0.2907
     14 C12        14.2062    2.2010    0.9278 C.ar      1 <0>         0.1677
     15 C13        12.8273    2.1374    0.8111 C.ar      1 <0>        -0.1710
     16 O2         14.9922    1.9039   -0.1403 O.3       1 <0>        -0.3125
     17 C14        16.4058    1.9901    0.0505 C.3       1 <0>         0.0254
     18 O3         14.5592    3.2306    4.4063 O.3       1 <0>        -0.3118
     19 C15        15.9869    3.2730    4.4486 C.3       1 <0>         0.0254
     20 C16         7.8338   -0.0558    1.2039 C.ar      1 <0>         0.2606
     21 N2          6.5178   -0.0260    1.1083 N.ar      1 <0>        -0.5750
     22 C17         5.8449    1.1127    1.2338 C.ar      1 <0>         0.6024
     23 N3          6.4459    2.2720    1.4541 N.ar      1 <0>        -0.5905
     24 N4          4.4681    1.0872    1.1249 N.pl3     1 <0>        -0.6304
     25 C18         3.7988   -0.1355    0.9933 C.ar      1 <0>         0.1464
     26 C19         4.2823   -1.2654    1.6398 C.ar      1 <0>        -0.0694
     27 C20         3.6213   -2.4708    1.5098 C.ar      1 <0>        -0.1190
     28 C21         2.4746   -2.5533    0.7336 C.ar      1 <0>         0.0956
     29 C22         1.9906   -1.4250    0.0878 C.ar      1 <0>        -0.1797
     30 C23         2.6507   -0.2189    0.2164 C.ar      1 <0>        -0.1056
     31 O4          1.8242   -3.7407    0.6061 O.3       1 <0>        -0.3285
     32 C24         0.6501   -3.7531   -0.2084 C.3       1 <0>         0.0259
     33 C25         0.0607   -5.1649   -0.2320 C.3       1 <0>        -0.0017
     34 C26        -1.5262   -4.6837    1.5323 C.3       1 <0>        -0.0163
     35 C27        -2.7004   -4.8939    0.5742 C.3       1 <0>        -0.1869
     36 C28        -0.7499   -6.9511    1.1876 C.3       1 <0>        -0.0119
     37 C29        -0.8886   -7.3691    2.6528 C.3       1 <0>        -0.1890
     38 H1          8.4167    5.6459    0.1459 H         1 <0>         0.0620
     39 H2          6.9260    4.7079   -0.1115 H         1 <0>         0.0586
     40 H3          6.8463    6.3139    0.6519 H         1 <0>         0.0781
     41 H4          6.6250    4.5130    2.3421 H         1 <0>         0.1003
     42 H5          8.1157    5.4510    2.5995 H         1 <0>         0.0998
     43 H6         10.5039    0.2705    1.4572 H         1 <0>         0.1543
     44 H7         11.9865    3.0564    3.9660 H         1 <0>         0.1318
     45 H8         15.8610    2.6158    2.2222 H         1 <0>         0.1369
     46 H9         12.3769    1.8522   -0.1281 H         1 <0>         0.1342
     47 H10        16.6725    3.0076    0.3364 H         1 <0>         0.0567
     48 H11        16.7089    1.3002    0.8381 H         1 <0>         0.0565
     49 H12        16.9143    1.7283   -0.8774 H         1 <0>         0.1041
     50 H13        16.3122    3.5727    5.4448 H         1 <0>         0.1042
     51 H14        16.3867    2.2856    4.2176 H         1 <0>         0.0563
     52 H15        16.3510    3.9929    3.7156 H         1 <0>         0.0567
     53 H16         8.3732   -0.9857    1.1002 H         1 <0>         0.1889
     54 H17         3.9651    1.9164    1.1397 H         1 <0>         0.4281
     55 H18         5.1725   -1.2004    2.2478 H         1 <0>         0.1475
     56 H19         3.9970   -3.3496    2.0129 H         1 <0>         0.1366
     57 H20         1.0976   -1.4900   -0.5161 H         1 <0>         0.1306
     58 H21         2.2739    0.6594   -0.2865 H         1 <0>         0.1340
     59 H22        -0.0840   -3.0597    0.2018 H         1 <0>         0.0852
     60 H23         0.9086   -3.4503   -1.2231 H         1 <0>         0.1079
     61 H24        -0.7820   -5.1952   -0.9226 H         1 <0>         0.1506
     62 H25         0.8236   -5.8717   -0.5583 H         1 <0>         0.1410
     63 H26        -1.8292   -4.9556    2.5435 H         1 <0>         0.1316
     64 H27        -1.2242   -3.6366    1.5127 H         1 <0>         0.1266
     65 H28        -2.3927   -4.6370   -0.4395 H         1 <0>         0.0793
     66 H29        -3.0127   -5.9377    0.6056 H         1 <0>         0.0821
     67 H30        -3.5324   -4.2565    0.8738 H         1 <0>         0.1067
     68 H31        -1.6951   -7.1179    0.6711 H         1 <0>         0.1326
     69 H32         0.0328   -7.5432    0.7133 H         1 <0>         0.1298
     70 H33        -1.6544   -6.7603    3.1334 H         1 <0>         0.0791
     71 H34        -1.1737   -8.4199    2.7054 H         1 <0>         0.1064
     72 H35         0.0635   -7.2250    3.1634 H         1 <0>         0.0812
     73 N5         -0.3759   -5.5221    1.1342 N.4       1 <0>        -0.3968
     74 H36         0.3995   -5.3557    1.7864 H         1 <0>         0.4359
@<TRIPOS>BOND
     1    1    2 1
     2    1   38 1
     3    1   39 1
     4    1   40 1
     5    2    3 1
     6    2   41 1
     7    2   42 1
     8    3    8 am
     9    3    4 1
    10    4   23 ar
    11    4    5 ar
    12    5    6 1
    13    5   20 ar
    14    6    7 2
    15    6   43 1
    16    7    8 1
    17    7   10 1
    18    8    9 2
    19   10   15 ar
    20   10   11 ar
    21   11   12 ar
    22   11   44 1
    23   12   13 ar
    24   12   18 1
    25   13   14 ar
    26   13   45 1
    27   14   15 ar
    28   14   16 1
    29   15   46 1
    30   16   17 1
    31   17   47 1
    32   17   48 1
    33   17   49 1
    34   18   19 1
    35   19   50 1
    36   19   51 1
    37   19   52 1
    38   20   21 ar
    39   20   53 1
    40   21   22 ar
    41   22   23 ar
    42   22   24 1
    43   24   25 1
    44   24   54 1
    45   25   30 ar
    46   25   26 ar
    47   26   27 ar
    48   26   55 1
    49   27   28 ar
    50   27   56 1
    51   28   29 ar
    52   28   31 1
    53   29   30 ar
    54   29   57 1
    55   30   58 1
    56   31   32 1
    57   32   33 1
    58   32   59 1
    59   32   60 1
    60   33   61 1
    61   33   62 1
    62   33   73 1
    63   34   35 1
    64   34   63 1
    65   34   64 1
    66   34   73 1
    67   35   65 1
    68   35   66 1
    69   35   67 1
    70   36   37 1
    71   36   68 1
    72   36   69 1
    73   36   73 1
    74   37   70 1
    75   37   71 1
    76   37   72 1
    77   73   74 1
@<TRIPOS>MOLECULE
ZINC03832401
   42    45     0     0     0
SMALL
USER_CHARGES

@<TRIPOS>ATOM
      1 C1          1.0177    4.4135    4.5620 C.3       1 <0>         0.0226
      2 O1         -0.1523    3.6160    4.3690 O.3       1 <0>        -0.2996
      3 C2         -0.3592    3.1151    3.1219 C.ar      1 <0>         0.1234
      4 C3          0.5362    3.3853    2.1273 C.ar      1 <0>        -0.1545
      5 C4          0.3255    2.8700    0.8400 C.ar      1 <0>        -0.1015
      6 C5         -0.8134    2.0712    0.5761 C.ar      1 <0>         0.1660
      7 C6         -1.7189    1.8072    1.6150 C.ar      1 <0>        -0.1778
      8 C7         -1.4893    2.3252    2.8694 C.ar      1 <0>         0.1546
      9 O2         -2.3672    2.0679    3.8737 O.3       1 <0>        -0.2970
     10 C8         -3.4991    1.2563    3.5538 C.3       1 <0>         0.0198
     11 N1         -1.0232    1.5795   -0.6540 N.ar      1 <0>        -0.4653
     12 C9         -0.1942    1.8037   -1.6413 C.ar      1 <0>         0.1794
     13 C10         0.9601    2.5847   -1.4701 C.ar      1 <0>        -0.0934
     14 C11         1.2365    3.1344   -0.2090 C.ar      1 <0>         0.2741
     15 N2          2.3607    3.9072    0.0009 N.pl3     1 <0>        -0.7105
     16 C12         3.5592    3.3051    0.4013 C.ar      1 <0>         0.1773
     17 C13         3.5841    1.9460    0.7121 C.ar      1 <0>        -0.1482
     18 C14         4.7554    1.3379    1.1026 C.ar      1 <0>        -0.0853
     19 C15         5.9269    2.0819    1.2007 C.ar      1 <0>         0.0598
     20 C16         5.9050    3.4541    0.8933 C.ar      1 <0>        -0.0657
     21 C17         4.7129    4.0611    0.4928 C.ar      1 <0>        -0.1378
     22 C18         7.2739    3.9364    1.0933 C.2       1 <0>        -0.2154
     23 C19         8.0073    2.8841    1.4893 C.2       1 <0>         0.0616
     24 N3          7.2206    1.7671    1.5595 N.pl3     1 <0>        -0.5975
     25 H1          7.5271    0.8851    1.8225 H         1 <0>         0.4153
     26 C20         1.8456    2.8181   -2.5710 C.1       1 <0>         0.2572
     27 N4          2.5481    3.0032   -3.4444 N.1       1 <0>        -0.3979
     28 H2          1.0619    4.7489    5.5982 H         1 <0>         0.1061
     29 H3          1.9033    3.8203    4.3341 H         1 <0>         0.0596
     30 H4          0.9803    5.2794    3.9011 H         1 <0>         0.0586
     31 H5          1.4043    3.9946    2.3312 H         1 <0>         0.1495
     32 H6         -2.5926    1.1995    1.4311 H         1 <0>         0.1565
     33 H7         -4.1175    1.1289    4.4423 H         1 <0>         0.1069
     34 H8         -4.0833    1.7399    2.7709 H         1 <0>         0.0625
     35 H9         -3.1599    0.2812    3.2043 H         1 <0>         0.0623
     36 H10        -0.4053    1.3814   -2.6127 H         1 <0>         0.1724
     37 H11         2.3202    4.8676   -0.1290 H         1 <0>         0.4163
     38 H12         2.6768    1.3643    0.6417 H         1 <0>         0.1225
     39 H13         4.7643    0.2836    1.3366 H         1 <0>         0.1227
     40 H14         4.6925    5.1146    0.2556 H         1 <0>         0.1240
     41 H15         7.6263    4.9470    0.9490 H         1 <0>         0.1459
     42 H16         9.0622    2.9148    1.7186 H         1 <0>         0.1706
@<TRIPOS>BOND
     1    1    2 1
     2    1   28 1
     3    1   29 1
     4    1   30 1
     5    2    3 1
     6    3    8 ar
     7    3    4 ar
     8    4    5 ar
     9    4   31 1
    10    5   14 ar
    11    5    6 ar
    12    6    7 ar
    13    6   11 ar
    14    7    8 ar
    15    7   32 1
    16    8    9 1
    17    9   10 1
    18   10   33 1
    19   10   34 1
    20   10   35 1
    21   11   12 ar
    22   12   13 ar
    23   12   36 1
    24   13   14 ar
    25   13   26 1
    26   14   15 1
    27   15   16 1
    28   15   37 1
    29   16   21 ar
    30   16   17 ar
    31   17   18 ar
    32   17   38 1
    33   18   19 ar
    34   18   39 1
    35   19   24 1
    36   19   20 ar
    37   20   21 ar
    38   20   22 1
    39   21   40 1
    40   22   23 2
    41   22   41 1
    42   23   24 1
    43   23   42 1
    44   24   25 1
    45   26   27 3
@<TRIPOS>MOLECULE
ZINC03832402
   45    46     0     0     0
SMALL
USER_CHARGES

@<TRIPOS>ATOM
      1 C1          2.3598   -0.1526   -1.1845 C.3       1 <0>        -0.1443
      2 C2          2.4242    0.7331    0.0615 C.3       1 <0>        -0.0823
      3 C3          3.7392    1.5151    0.0640 C.3       1 <0>        -0.1408
      4 C4          2.3491   -0.1425    1.3140 C.3       1 <0>        -0.1443
      5 C5          1.2485    1.7122    0.0525 C.3       1 <0>         0.1290
      6 N1         -0.0106    0.9634    0.0501 N.am      1 <0>        -0.7223
      7 C6         -1.1864    1.6221    0.0368 C.2       1 <0>         0.5719
      8 O1         -1.2020    2.8381    0.0319 O.2       1 <0>        -0.5525
      9 C7         -2.4535    0.8685    0.0283 C.ar      1 <0>        -0.2299
     10 C8         -2.4427   -0.5237   -0.0905 C.ar      1 <0>        -0.0349
     11 C9         -3.6298   -1.2225   -0.0920 C.ar      1 <0>        -0.1908
     12 C10        -4.8379   -0.5511    0.0122 C.ar      1 <0>        -0.0384
     13 C11        -4.8657    0.8237    0.1244 C.ar      1 <0>        -0.2125
     14 C12        -3.6784    1.5455    0.1336 C.ar      1 <0>         0.2786
     15 N2         -3.7037    2.9295    0.2460 N.pl3     1 <0>        -0.7223
     16 C13        -4.9738    3.6226    0.4754 C.3       1 <0>         0.1560
     17 C14        -4.7280    5.1072    0.5583 C.ar      1 <0>        -0.0612
     18 C15        -4.4559    5.7146    1.7746 C.ar      1 <0>        -0.1532
     19 C16        -4.2316    7.0779    1.8113 C.ar      1 <0>         0.0991
     20 N3         -4.2835    7.7999    0.7090 N.ar      1 <0>        -0.4796
     21 C17        -4.5440    7.2567   -0.4641 C.ar      1 <0>         0.0990
     22 C18        -4.7742    5.8988   -0.5790 C.ar      1 <0>        -0.1535
     23 H1          2.4133    0.4712   -2.0768 H         1 <0>         0.0591
     24 H2          3.1973   -0.8501   -1.1781 H         1 <0>         0.0612
     25 H3          1.4229   -0.7097   -1.1863 H         1 <0>         0.0531
     26 H4          3.7850    2.1460    0.9516 H         1 <0>         0.0591
     27 H5          4.5767    0.8175    0.0704 H         1 <0>         0.0625
     28 H6          3.7927    2.1388   -0.8283 H         1 <0>         0.0591
     29 H7          1.4122   -0.6996    1.3122 H         1 <0>         0.0534
     30 H8          3.1866   -0.8401    1.3204 H         1 <0>         0.0611
     31 H9          2.3949    0.4884    2.2016 H         1 <0>         0.0589
     32 H10         1.3020    2.3360   -0.8398 H         1 <0>         0.0695
     33 H11         1.2944    2.3431    0.9402 H         1 <0>         0.0695
     34 H12         0.0019   -0.0065    0.0541 H         1 <0>         0.4004
     35 H13        -1.5045   -1.0517   -0.1768 H         1 <0>         0.1209
     36 H14        -3.6193   -2.2989   -0.1793 H         1 <0>         0.1251
     37 H15        -5.7635   -1.1076    0.0052 H         1 <0>         0.1265
     38 H16        -5.8112    1.3394    0.2048 H         1 <0>         0.1277
     39 H17        -2.8804    3.4371    0.1726 H         1 <0>         0.4216
     40 H18        -5.6562    3.4128   -0.3483 H         1 <0>         0.0752
     41 H19        -5.4141    3.2745    1.4097 H         1 <0>         0.0752
     42 H20        -4.4166    5.1294    2.6815 H         1 <0>         0.1362
     43 H21        -4.0158    7.5581    2.7542 H         1 <0>         0.1585
     44 H22        -4.5782    7.8803   -1.3452 H         1 <0>         0.1586
     45 H23        -4.9877    5.4600   -1.5424 H         1 <0>         0.1366
@<TRIPOS>BOND
     1    1    2 1
     2    1   23 1
     3    1   24 1
     4    1   25 1
     5    2    3 1
     6    2    4 1
     7    2    5 1
     8    3   26 1
     9    3   27 1
    10    3   28 1
    11    4   29 1
    12    4   30 1
    13    4   31 1
    14    5    6 1
    15    5   32 1
    16    5   33 1
    17    6    7 am
    18    6   34 1
    19    7    8 2
    20    7    9 1
    21    9   14 ar
    22    9   10 ar
    23   10   11 ar
    24   10   35 1
    25   11   12 ar
    26   11   36 1
    27   12   13 ar
    28   12   37 1
    29   13   14 ar
    30   13   38 1
    31   14   15 1
    32   15   16 1
    33   15   39 1
    34   16   17 1
    35   16   40 1
    36   16   41 1
    37   17   22 ar
    38   17   18 ar
    39   18   19 ar
    40   18   42 1
    41   19   20 ar
    42   19   43 1
    43   20   21 ar
    44   21   22 ar
    45   21   44 1
    46   22   45 1
@<TRIPOS>MOLECULE
ZINC03832403
   50    53     0     0     0
SMALL
USER_CHARGES

@<TRIPOS>ATOM
      1 C1         -1.5087   -0.8853    0.1378 C.ar      1 <0>        -0.0880
      2 C2         -2.6512   -0.0866    0.1324 C.ar      1 <0>        -0.1313
      3 C3         -2.5598    1.2717    0.1124 C.ar      1 <0>        -0.0754
      4 C4         -1.2946    1.8806    0.1022 C.ar      1 <0>        -0.1391
      5 C5         -1.1423    3.2759    0.0759 C.ar      1 <0>         0.1803
      6 N1          0.0571    3.8076    0.0623 N.ar      1 <0>        -0.4737
      7 C6          1.1682    3.0752    0.0674 C.ar      1 <0>         0.3502
      8 C7          1.1236    1.6967    0.0870 C.ar      1 <0>        -0.2059
      9 C8         -0.1316    1.0659    0.1023 C.ar      1 <0>         0.0069
     10 C9         -0.2649   -0.3308    0.1232 C.ar      1 <0>        -0.1227
     11 N2          2.4065    3.7163    0.0520 N.am      1 <0>        -0.6590
     12 C10         2.4698    5.0569   -0.0722 C.2       1 <0>         0.5677
     13 O1          1.4480    5.7162   -0.0748 O.2       1 <0>        -0.4869
     14 C11         3.7775    5.7238   -0.2048 C.ar      1 <0>        -0.2355
     15 C12         4.9449    4.9649   -0.3251 C.ar      1 <0>        -0.0354
     16 C13         6.1639    5.5943   -0.4492 C.ar      1 <0>        -0.1916
     17 C14         6.2401    6.9783   -0.4560 C.ar      1 <0>        -0.0366
     18 C15         5.0970    7.7416   -0.3383 C.ar      1 <0>        -0.2111
     19 C16         3.8577    7.1251   -0.2170 C.ar      1 <0>         0.2824
     20 N3          2.7049    7.8912   -0.1042 N.pl3     1 <0>        -0.7233
     21 C17         2.8020    9.3489    0.0055 C.3       1 <0>         0.1210
     22 C18         1.3979    9.9466    0.1167 C.3       1 <0>        -0.0995
     23 C19         0.6309    9.6989   -1.1859 C.3       1 <0>        -0.1510
     24 C20        -0.7430   10.3680   -1.0951 C.3       1 <0>         0.0604
     25 O2         -0.5756   11.7642   -0.8405 O.3       1 <0>        -0.3826
     26 C21         0.0935   12.0572    0.3877 C.3       1 <0>         0.0606
     27 C22         1.5011   11.4560    0.3565 C.3       1 <0>        -0.1483
     28 H1         -1.6115   -1.9603    0.1542 H         1 <0>         0.1273
     29 H2         -3.6252   -0.5531    0.1440 H         1 <0>         0.1271
     30 H3         -3.4544    1.8767    0.1081 H         1 <0>         0.1333
     31 H4         -2.0142    3.9131    0.0713 H         1 <0>         0.1679
     32 H5          2.0336    1.1151    0.0910 H         1 <0>         0.1389
     33 H6          0.6120   -0.9612    0.1279 H         1 <0>         0.1309
     34 H7          3.2223    3.1975    0.1307 H         1 <0>         0.4174
     35 H8          4.8913    3.8863   -0.3210 H         1 <0>         0.1214
     36 H9          7.0650    5.0062   -0.5420 H         1 <0>         0.1257
     37 H10         7.2007    7.4622   -0.5538 H         1 <0>         0.1266
     38 H11         5.1651    8.8195   -0.3442 H         1 <0>         0.1281
     39 H12         1.8354    7.4612   -0.0980 H         1 <0>         0.4199
     40 H13         3.3788    9.6089    0.8930 H         1 <0>         0.0637
     41 H14         3.2975    9.7477   -0.8796 H         1 <0>         0.0641
     42 H15         0.8681    9.4808    0.9476 H         1 <0>         0.0791
     43 H16         1.1874   10.1218   -2.0223 H         1 <0>         0.0731
     44 H17         0.5047    8.6267   -1.3361 H         1 <0>         0.0774
     45 H18        -1.3143    9.9166   -0.2839 H         1 <0>         0.0513
     46 H19        -1.2767   10.2314   -2.0356 H         1 <0>         0.0951
     47 H20        -0.4668   11.6278    1.2183 H         1 <0>         0.0508
     48 H21         0.1624   13.1375    0.5156 H         1 <0>         0.0960
     49 H22         1.9972   11.6403    1.3094 H         1 <0>         0.0768
     50 H23         2.0751   11.9143   -0.4488 H         1 <0>         0.0757
@<TRIPOS>BOND
     1    1   10 ar
     2    1    2 ar
     3    1   28 1
     4    2    3 ar
     5    2   29 1
     6    3    4 ar
     7    3   30 1
     8    4    9 ar
     9    4    5 ar
    10    5    6 ar
    11    5   31 1
    12    6    7 ar
    13    7    8 ar
    14    7   11 1
    15    8    9 ar
    16    8   32 1
    17    9   10 ar
    18   10   33 1
    19   11   12 am
    20   11   34 1
    21   12   13 2
    22   12   14 1
    23   14   19 ar
    24   14   15 ar
    25   15   16 ar
    26   15   35 1
    27   16   17 ar
    28   16   36 1
    29   17   18 ar
    30   17   37 1
    31   18   19 ar
    32   18   38 1
    33   19   20 1
    34   20   21 1
    35   20   39 1
    36   21   22 1
    37   21   40 1
    38   21   41 1
    39   22   27 1
    40   22   23 1
    41   22   42 1
    42   23   24 1
    43   23   43 1
    44   23   44 1
    45   24   25 1
    46   24   45 1
    47   24   46 1
    48   25   26 1
    49   26   27 1
    50   26   47 1
    51   26   48 1
    52   27   49 1
    53   27   50 1
@<TRIPOS>MOLECULE
ZINC03832404
   39    41     0     0     0
SMALL
USER_CHARGES

@<TRIPOS>ATOM
      1 C1         -3.9730    4.7323    8.4928 C.3       1 <0>        -0.1671
      2 C2         -4.0550    3.9320    7.2185 C.2       1 <0>         0.5031
      3 O1         -3.0891    3.8523    6.4892 O.2       1 <0>        -0.4965
      4 N1         -5.2017    3.3049    6.8892 N.am      1 <0>        -0.6289
      5 C3         -5.2773    2.5671    5.7143 C.2       1 <0>         0.2296
      6 C4         -6.3660    1.8820    5.2530 C.2       1 <0>        -0.0078
      7 N2         -6.0153    1.3068    4.0838 N.2       1 <0>        -0.4102
      8 C5         -4.7682    1.6145    3.8221 C.2       1 <0>         0.2287
      9 O2         -4.2889    2.3864    4.8157 O.3       1 <0>        -0.1703
     10 C6         -4.0094    1.1795    2.6326 C.ar      1 <0>        -0.0049
     11 C7         -2.6809    1.5745    2.4652 C.ar      1 <0>        -0.1080
     12 C8         -1.9757    1.1628    1.3483 C.ar      1 <0>         0.1211
     13 C9         -2.5880    0.3631    0.3922 C.ar      1 <0>        -0.1719
     14 C10        -3.9009   -0.0364    0.5542 C.ar      1 <0>        -0.1052
     15 C11        -4.6189    0.3683    1.6674 C.ar      1 <0>         0.1190
     16 O3         -5.9117   -0.0204    1.8223 O.3       1 <0>        -0.4717
     17 O4         -0.6816    1.5467    1.1837 O.3       1 <0>        -0.3127
     18 C12        -0.0127    1.0858    0.0080 C.3       1 <0>         0.0249
     19 C13        -7.6882    1.7876    5.9153 C.ar      1 <0>        -0.0515
     20 C14        -8.8618    1.7380    5.1558 C.ar      1 <0>        -0.0443
     21 C15       -10.0714    1.6502    5.8222 C.ar      1 <0>        -0.1632
     22 C16       -10.0813    1.6145    7.2051 C.ar      1 <0>         0.1002
     23 N3         -8.9582    1.6624    7.8950 N.ar      1 <0>        -0.4738
     24 C17        -7.7827    1.7409    7.3056 C.ar      1 <0>         0.0954
     25 H1         -4.9305    4.6881    9.0118 H         1 <0>         0.0841
     26 H2         -3.1936    4.3181    9.1324 H         1 <0>         0.1077
     27 H3         -3.7356    5.7694    8.2559 H         1 <0>         0.1071
     28 H4         -5.9741    3.3687    7.4724 H         1 <0>         0.4331
     29 H5         -2.2047    2.1997    3.2059 H         1 <0>         0.1452
     30 H6         -2.0342    0.0486   -0.4800 H         1 <0>         0.1395
     31 H7         -4.3697   -0.6616   -0.1913 H         1 <0>         0.1432
     32 H8         -6.5546    0.5872    1.4316 H         1 <0>         0.3902
     33 H9          0.0021   -0.0041    0.0020 H         1 <0>         0.0582
     34 H10         1.0099    1.4631    0.0003 H         1 <0>         0.1037
     35 H11        -0.5399    1.4469   -0.8751 H         1 <0>         0.0580
     36 H12        -8.8249    1.7679    4.0768 H         1 <0>         0.1423
     37 H13       -10.9978    1.6096    5.2686 H         1 <0>         0.1422
     38 H14       -11.0237    1.5460    7.7281 H         1 <0>         0.1613
     39 H15        -6.8846    1.7734    7.9045 H         1 <0>         0.1499
@<TRIPOS>BOND
     1    1    2 1
     2    1   25 1
     3    1   26 1
     4    1   27 1
     5    2    3 2
     6    2    4 am
     7    4    5 1
     8    4   28 1
     9    5    9 1
    10    5    6 2
    11    6    7 1
    12    6   19 1
    13    7    8 2
    14    8    9 1
    15    8   10 1
    16   10   15 ar
    17   10   11 ar
    18   11   12 ar
    19   11   29 1
    20   12   13 ar
    21   12   17 1
    22   13   14 ar
    23   13   30 1
    24   14   15 ar
    25   14   31 1
    26   15   16 1
    27   16   32 1
    28   17   18 1
    29   18   33 1
    30   18   34 1
    31   18   35 1
    32   19   24 ar
    33   19   20 ar
    34   20   21 ar
    35   20   36 1
    36   21   22 ar
    37   21   37 1
    38   22   23 ar
    39   22   38 1
    40   23   24 ar
    41   24   39 1
@<TRIPOS>MOLECULE
ZINC03832405
   64    68     0     0     0
SMALL
USER_CHARGES

@<TRIPOS>ATOM
      1 C1          7.6320   -0.4371   -0.8048 C.3       1 <0>        -0.0943
      2 C2          6.2265    0.0847   -0.6525 C.2       1 <0>        -0.1033
      3 C3          5.0979   -0.6689   -0.3482 C.2       1 <0>        -0.0873
      4 C4          4.0193    0.1937   -0.3023 C.2       1 <0>        -0.0446
      5 N1          4.4711    1.4609   -0.5679 N.pl3     1 <0>        -0.5402
      6 H1          3.9255    2.2624   -0.5960 H         1 <0>         0.4101
      7 C5          5.8221    1.4048   -0.7895 C.2       1 <0>         0.0643
      8 C6          6.6602    2.5030   -1.0984 C.2       1 <0>         0.0447
      9 C7          6.7801    3.5491   -0.2102 C.2       1 <0>        -0.1981
     10 C8          5.9687    4.7821   -0.1563 C.ar      1 <0>        -0.1932
     11 C9          4.8989    5.2680   -0.9173 C.ar      1 <0>         0.2716
     12 C10         4.3648    6.5110   -0.5755 C.ar      1 <0>        -0.2653
     13 C11         4.9010    7.1990    0.4936 C.ar      1 <0>         0.1883
     14 N2          5.9092    6.7151    1.1925 N.ar      1 <0>        -0.5207
     15 C12         6.4631    5.5401    0.9129 C.ar      1 <0>         0.4019
     16 N3          7.5120    4.8563    1.5077 N.am      1 <0>        -0.6352
     17 C13         7.7464    3.6832    0.8957 C.2       1 <0>         0.5653
     18 O1          8.6037    2.8747    1.2002 O.2       1 <0>        -0.4705
     19 N4          4.3883    4.5376   -1.9840 N.pl3     1 <0>        -0.6691
     20 C14         3.4263    5.1068   -2.8244 C.ar      1 <0>         0.1573
     21 C15         2.3438    4.3502   -3.2551 C.ar      1 <0>        -0.1202
     22 C16         1.3944    4.9139   -4.0847 C.ar      1 <0>        -0.1160
     23 C17         1.5208    6.2325   -4.4880 C.ar      1 <0>         0.1004
     24 C18         2.5998    6.9894   -4.0604 C.ar      1 <0>        -0.0474
     25 C19         3.5519    6.4291   -3.2296 C.ar      1 <0>        -0.1077
     26 Cl1         2.7596    8.6400   -4.5739 Cl        1 <0>        -0.0242
     27 F1          0.5910    6.7816   -5.2999 F         1 <0>        -0.1193
     28 C20         2.6278   -0.1815   -0.0120 C.2       1 <0>         0.5992
     29 O2          2.3587   -1.3265    0.2989 O.2       1 <0>        -0.5025
     30 N5          1.6501    0.7429   -0.0904 N.am      1 <0>        -0.7385
     31 C21         0.2494    0.3426    0.0644 C.3       1 <0>         0.0965
     32 C22        -0.6567    1.5491   -0.1891 C.3       1 <0>        -0.0180
     33 C23        -2.5097    0.1212   -0.8173 C.3       1 <0>        -0.0464
     34 C24        -3.9436   -0.2717   -0.4521 C.3       1 <0>         0.0351
     35 O3         -4.7791    0.8877   -0.5076 O.3       1 <0>        -0.3550
     36 C25        -4.3618    1.9405    0.3659 C.3       1 <0>         0.0344
     37 C26        -2.9321    2.3558    0.0089 C.3       1 <0>        -0.0379
     38 H2          8.1369   -0.4080    0.1608 H         1 <0>         0.0790
     39 H3          7.6008   -1.4645   -1.1677 H         1 <0>         0.0759
     40 H4          8.1749    0.1837   -1.5175 H         1 <0>         0.0706
     41 H5          5.0696   -1.7351   -0.1785 H         1 <0>         0.1618
     42 H6          7.2056    2.5208   -2.0304 H         1 <0>         0.1650
     43 H7          3.5419    6.9271   -1.1377 H         1 <0>         0.1499
     44 H8          4.4872    8.1597    0.7623 H         1 <0>         0.1736
     45 H9          8.0140    5.1837    2.2704 H         1 <0>         0.4291
     46 H10         4.6992    3.6331   -2.1454 H         1 <0>         0.4087
     47 H11         2.2444    3.3217   -2.9410 H         1 <0>         0.1350
     48 H12         0.5528    4.3257   -4.4195 H         1 <0>         0.1503
     49 H13         4.3931    7.0189   -2.8965 H         1 <0>         0.1563
     50 H14         1.8740    1.6733   -0.2492 H         1 <0>         0.3997
     51 H15         0.0152   -0.4446   -0.6522 H         1 <0>         0.0970
     52 H16         0.0870   -0.0275    1.0767 H         1 <0>         0.0914
     53 H17        -0.3591    2.3704    0.4629 H         1 <0>         0.1377
     54 H18        -0.5653    1.8599   -1.2298 H         1 <0>         0.1406
     55 H19        -2.4825    0.4852   -1.8444 H         1 <0>         0.1434
     56 H20        -1.8585   -0.7475   -0.7210 H         1 <0>         0.1436
     57 H21        -3.9620   -0.6856    0.5561 H         1 <0>         0.0833
     58 H22        -4.3081   -1.0171   -1.1589 H         1 <0>         0.1441
     59 H23        -4.3923    1.5908    1.3978 H         1 <0>         0.0827
     60 H24        -5.0284    2.7951    0.2513 H         1 <0>         0.1439
     61 H25        -2.5892    3.1182    0.7083 H         1 <0>         0.1425
     62 H26        -2.9116    2.7555   -1.0050 H         1 <0>         0.1423
     63 N6         -2.0536    1.1717    0.1167 N.4       1 <0>        -0.3922
     64 H27        -2.0988    0.8084    1.0760 H         1 <0>         0.4306
@<TRIPOS>BOND
     1    1    2 1
     2    1   38 1
     3    1   39 1
     4    1   40 1
     5    2    7 2
     6    2    3 1
     7    3    4 2
     8    3   41 1
     9    4    5 1
    10    4   28 1
    11    5    6 1
    12    5    7 1
    13    7    8 1
    14    8    9 2
    15    8   42 1
    16    9   17 1
    17    9   10 1
    18   10   15 ar
    19   10   11 ar
    20   11   12 ar
    21   11   19 1
    22   12   13 ar
    23   12   43 1
    24   13   14 ar
    25   13   44 1
    26   14   15 ar
    27   15   16 1
    28   16   17 am
    29   16   45 1
    30   17   18 2
    31   19   20 1
    32   19   46 1
    33   20   25 ar
    34   20   21 ar
    35   21   22 ar
    36   21   47 1
    37   22   23 ar
    38   22   48 1
    39   23   24 ar
    40   23   27 1
    41   24   25 ar
    42   24   26 1
    43   25   49 1
    44   28   29 2
    45   28   30 am
    46   30   31 1
    47   30   50 1
    48   31   32 1
    49   31   51 1
    50   31   52 1
    51   32   53 1
    52   32   54 1
    53   32   63 1
    54   33   34 1
    55   33   55 1
    56   33   56 1
    57   33   63 1
    58   34   35 1
    59   34   57 1
    60   34   58 1
    61   35   36 1
    62   36   37 1
    63   36   59 1
    64   36   60 1
    65   37   61 1
    66   37   62 1
    67   37   63 1
    68   63   64 1
@<TRIPOS>MOLECULE
ZINC03832406
   49    55     0     0     0
SMALL
USER_CHARGES

@<TRIPOS>ATOM
      1 C1         -8.0155   -0.7353    0.0796 C.ar      1 <0>        -0.1434
      2 C2         -8.1965    0.6394    0.0890 C.ar      1 <0>        -0.0810
      3 C3         -7.1120    1.4896    0.0819 C.ar      1 <0>        -0.1382
      4 C4         -5.8204    0.9712    0.0660 C.ar      1 <0>         0.1368
      5 C5         -5.6397   -0.4195    0.0569 C.ar      1 <0>        -0.0946
      6 C6         -6.7443   -1.2678    0.0633 C.ar      1 <0>        -0.0603
      7 C7         -4.1825   -0.6516    0.0408 C.ar      1 <0>        -0.0627
      8 C8         -3.4039   -1.8029    0.0275 C.ar      1 <0>        -0.0446
      9 C9         -2.0163   -1.7140    0.0121 C.ar      1 <0>        -0.1345
     10 C10        -1.4033   -0.4404    0.0136 C.ar      1 <0>         0.0012
     11 C11         0.0021   -0.0041    0.0020 C.ar      1 <0>        -0.1085
     12 C12         1.2184   -0.6861   -0.0133 C.ar      1 <0>        -0.0479
     13 C13         2.3992    0.0229   -0.0208 C.ar      1 <0>        -0.1526
     14 C14         2.3820    1.4101   -0.0127 C.ar      1 <0>        -0.0781
     15 C15         1.1878    2.0970    0.0020 C.ar      1 <0>        -0.1354
     16 C16        -0.0170    1.3998    0.0097 C.ar      1 <0>         0.1534
     17 N1         -1.3345    1.8144    0.0301 N.pl3     1 <0>        -0.4937
     18 C17        -2.1813    0.7180    0.0275 C.ar      1 <0>         0.1171
     19 C18        -3.5801    0.6154    0.0413 C.ar      1 <0>         0.1600
     20 N2         -4.5748    1.5720    0.0564 N.pl3     1 <0>        -0.6100
     21 H1         -4.4218    2.5298    0.0601 H         1 <0>         0.4127
     22 C19        -1.7732    3.2121    0.0443 C.3       1 <0>         0.3177
     23 H2         -2.8309    3.2787    0.2991 H         1 <0>         0.0906
     24 C20        -1.4943    3.8856   -1.3236 C.3       1 <0>        -0.1648
     25 C21        -1.4030    5.3816   -0.9359 C.3       1 <0>        -0.1475
     26 C22        -1.0962    5.3624    0.5741 C.3       1 <0>         0.2556
     27 H3         -1.9076    5.8375    1.1255 H         1 <0>         0.0788
     28 O1         -0.9779    3.9852    0.9687 O.3       1 <0>        -0.3958
     29 O2          0.1313    6.0481    0.8293 O.3       1 <0>        -0.5456
     30 C23        -1.4633   -3.0768   -0.0013 C.2       1 <0>         0.5676
     31 O3         -0.2770   -3.3445   -0.0139 O.2       1 <0>        -0.5220
     32 N3         -2.4545   -3.9844    0.0027 N.am      1 <0>        -0.7238
     33 C24        -3.7385   -3.2743    0.0233 C.3       1 <0>         0.1443
     34 H4         -8.8735   -1.3911    0.0853 H         1 <0>         0.1301
     35 H5         -9.1964    1.0474    0.1018 H         1 <0>         0.1313
     36 H6         -7.2644    2.5588    0.0890 H         1 <0>         0.1249
     37 H7         -6.6052   -2.3388    0.0560 H         1 <0>         0.1284
     38 H8          1.2344   -1.7660   -0.0196 H         1 <0>         0.1458
     39 H9          3.3423   -0.5031   -0.0326 H         1 <0>         0.1282
     40 H10         3.3135    1.9566   -0.0187 H         1 <0>         0.1288
     41 H11         1.1865    3.1770    0.0074 H         1 <0>         0.1273
     42 H12        -0.5523    3.5348   -1.7451 H         1 <0>         0.0956
     43 H13        -2.3174    3.7130   -2.0171 H         1 <0>         0.0942
     44 H14        -2.3516    5.8836   -1.1261 H         1 <0>         0.0936
     45 H15        -0.5971    5.8710   -1.4828 H         1 <0>         0.1016
     46 H16         0.3873    6.0624    1.7617 H         1 <0>         0.3909
     47 H17        -2.3402   -4.9476   -0.0039 H         1 <0>         0.4272
     48 H18        -4.2993   -3.5338    0.9212 H         1 <0>         0.1007
     49 H19        -4.3167   -3.5248   -0.8661 H         1 <0>         0.1005
@<TRIPOS>BOND
     1    1    6 ar
     2    1    2 ar
     3    1   34 1
     4    2    3 ar
     5    2   35 1
     6    3    4 ar
     7    3   36 1
     8    4   20 1
     9    4    5 ar
    10    5    6 ar
    11    5    7 1
    12    6   37 1
    13    7   19 ar
    14    7    8 ar
    15    8   33 1
    16    8    9 ar
    17    9   10 ar
    18    9   30 1
    19   10   18 ar
    20   10   11 1
    21   11   16 ar
    22   11   12 ar
    23   12   13 ar
    24   12   38 1
    25   13   14 ar
    26   13   39 1
    27   14   15 ar
    28   14   40 1
    29   15   16 ar
    30   15   41 1
    31   16   17 1
    32   17   18 1
    33   17   22 1
    34   18   19 ar
    35   19   20 1
    36   20   21 1
    37   22   23 1
    38   22   28 1
    39   22   24 1
    40   24   25 1
    41   24   42 1
    42   24   43 1
    43   25   26 1
    44   25   44 1
    45   25   45 1
    46   26   27 1
    47   26   28 1
    48   26   29 1
    49   29   46 1
    50   30   31 2
    51   30   32 am
    52   32   33 1
    53   32   47 1
    54   33   48 1
    55   33   49 1
@<TRIPOS>MOLECULE
ZINC03832407
   57    60     0     0     0
SMALL
USER_CHARGES

@<TRIPOS>ATOM
      1 C1          9.3458    5.5915   -1.3015 C.3       1 <0>        -0.1388
      2 C2          8.3163    6.3660   -0.4763 C.3       1 <0>        -0.0278
      3 C3          8.0008    7.6929   -1.1697 C.3       1 <0>        -0.1451
      4 C4          8.8829    6.6413    0.9179 C.3       1 <0>        -0.1390
      5 C5          7.0547    5.5508   -0.3539 C.ar      1 <0>        -0.0874
      6 C6          7.0940    4.3044    0.2439 C.ar      1 <0>        -0.0950
      7 C7          5.9398    3.5548    0.3577 C.ar      1 <0>        -0.1495
      8 C8          4.7382    4.0543   -0.1286 C.ar      1 <0>         0.1540
      9 C9          4.7032    5.3047   -0.7328 C.ar      1 <0>        -0.1099
     10 C10         5.8602    6.0511   -0.8391 C.ar      1 <0>        -0.1013
     11 N1          3.5684    3.2981   -0.0155 N.pl3     1 <0>        -0.6514
     12 C11         2.3498    3.9307    0.1669 C.ar      1 <0>         0.4287
     13 C12         1.1529    3.1796    0.1640 C.ar      1 <0>        -0.1368
     14 C13         1.1469    1.7910   -0.0195 C.ar      1 <0>        -0.0828
     15 C14        -0.0381    1.1174   -0.0135 C.ar      1 <0>        -0.1269
     16 C15        -1.2450    1.7890    0.1666 C.ar      1 <0>        -0.0856
     17 C16        -1.2754    3.1386    0.3537 C.ar      1 <0>        -0.1226
     18 C17        -0.0749    3.8622    0.3532 C.ar      1 <0>         0.0220
     19 C18        -0.0409    5.2590    0.5347 C.ar      1 <0>        -0.1768
     20 C19         1.1624    5.8937    0.5221 C.ar      1 <0>         0.1409
     21 N2          2.3013    5.2374    0.3435 N.ar      1 <0>        -0.5393
     22 C20        -1.3155    6.0364    0.7402 C.3       1 <0>        -0.0292
     23 C21        -1.6932    6.0052    2.1988 C.ar      1 <0>         0.0023
     24 C22        -1.2358    6.9831    3.0716 C.ar      1 <0>        -0.2057
     25 C23        -1.6005    6.9252    4.4018 C.ar      1 <0>         0.1425
     26 N3         -2.3752    5.9550    4.8491 N.ar      1 <0>        -0.5436
     27 C24        -2.8306    5.0058    4.0488 C.ar      1 <0>         0.3228
     28 C25        -2.5085    5.0045    2.6974 C.ar      1 <0>        -0.1899
     29 O1         -3.6250    4.0273    4.5511 O.3       1 <0>        -0.3090
     30 C26        -3.9250    4.0878    5.9469 C.3       1 <0>         0.0403
     31 H1          8.9421    5.3954   -2.2948 H         1 <0>         0.0560
     32 H2         10.2583    6.1811   -1.3901 H         1 <0>         0.0579
     33 H3          9.5706    4.6462   -0.8075 H         1 <0>         0.0561
     34 H4          7.2673    8.2447   -0.5818 H         1 <0>         0.0590
     35 H5          8.9133    8.2825   -1.2583 H         1 <0>         0.0578
     36 H6          7.5971    7.4968   -2.1630 H         1 <0>         0.0584
     37 H7          9.1077    5.6960    1.4119 H         1 <0>         0.0559
     38 H8          9.7954    7.2309    0.8294 H         1 <0>         0.0578
     39 H9          8.1494    7.1931    1.5058 H         1 <0>         0.0564
     40 H10         8.0285    3.9167    0.6218 H         1 <0>         0.1226
     41 H11         5.9712    2.5814    0.8247 H         1 <0>         0.1209
     42 H12         3.7715    5.6940   -1.1160 H         1 <0>         0.1351
     43 H13         5.8329    7.0250   -1.3050 H         1 <0>         0.1276
     44 H14         3.6098    2.3302   -0.0646 H         1 <0>         0.4166
     45 H15         2.0748    1.2576   -0.1643 H         1 <0>         0.1238
     46 H16        -0.0417    0.0468   -0.1551 H         1 <0>         0.1279
     47 H17        -2.1699    1.2314    0.1625 H         1 <0>         0.1288
     48 H18        -2.2173    3.6471    0.4971 H         1 <0>         0.1336
     49 H19         1.1912    6.9643    0.6613 H         1 <0>         0.1537
     50 H20        -1.1658    7.0692    0.4256 H         1 <0>         0.0935
     51 H21        -2.1137    5.5883    0.1485 H         1 <0>         0.0885
     52 H22        -0.6018    7.7808    2.7138 H         1 <0>         0.1379
     53 H23        -1.2471    7.6832    5.0850 H         1 <0>         0.1599
     54 H24        -2.8858    4.2305    2.0456 H         1 <0>         0.1397
     55 H25        -2.9993    4.0367    6.5201 H         1 <0>         0.0585
     56 H26        -4.4380    5.0238    6.1680 H         1 <0>         0.0593
     57 H27        -4.5666    3.2492    6.2174 H         1 <0>         0.0967
@<TRIPOS>BOND
     1    1    2 1
     2    1   31 1
     3    1   32 1
     4    1   33 1
     5    2    3 1
     6    2    4 1
     7    2    5 1
     8    3   34 1
     9    3   35 1
    10    3   36 1
    11    4   37 1
    12    4   38 1
    13    4   39 1
    14    5   10 ar
    15    5    6 ar
    16    6    7 ar
    17    6   40 1
    18    7    8 ar
    19    7   41 1
    20    8    9 ar
    21    8   11 1
    22    9   10 ar
    23    9   42 1
    24   10   43 1
    25   11   12 1
    26   11   44 1
    27   12   21 ar
    28   12   13 ar
    29   13   18 ar
    30   13   14 ar
    31   14   15 ar
    32   14   45 1
    33   15   16 ar
    34   15   46 1
    35   16   17 ar
    36   16   47 1
    37   17   18 ar
    38   17   48 1
    39   18   19 ar
    40   19   20 ar
    41   19   22 1
    42   20   21 ar
    43   20   49 1
    44   22   23 1
    45   22   50 1
    46   22   51 1
    47   23   28 ar
    48   23   24 ar
    49   24   25 ar
    50   24   52 1
    51   25   26 ar
    52   25   53 1
    53   26   27 ar
    54   27   28 ar
    55   27   29 1
    56   28   54 1
    57   29   30 1
    58   30   55 1
    59   30   56 1
    60   30   57 1
@<TRIPOS>MOLECULE
ZINC03832408
   40    42     0     0     0
SMALL
USER_CHARGES

@<TRIPOS>ATOM
      1 C1          4.4650    2.3257   -1.2729 C.3       1 <0>        -0.1242
      2 C2          3.7891    3.4372   -2.0337 C.ar      1 <0>        -0.0418
      3 C3          4.1676    3.7470   -3.3306 C.ar      1 <0>        -0.1353
      4 C4          3.5027    4.7910   -3.9728 C.ar      1 <0>         0.3303
      5 N1          2.5398    5.4445   -3.3387 N.ar      1 <0>        -0.2860
      6 N2          2.1912    5.1488   -2.1393 N.ar      1 <0>        -0.1980
      7 C5          2.7659    4.1773   -1.4583 C.ar      1 <0>         0.0360
      8 C6          2.3159    3.8745   -0.0523 C.3       1 <0>        -0.0254
      9 C7          1.2082    2.8533   -0.0883 C.ar      1 <0>        -0.0354
     10 C8          1.4914    1.4970   -0.0362 C.ar      1 <0>        -0.1723
     11 C9          0.4495    0.5897   -0.0719 C.ar      1 <0>         0.0984
     12 N3         -0.8004    1.0009   -0.1596 N.ar      1 <0>        -0.4860
     13 C10        -1.1070    2.2826   -0.2060 C.ar      1 <0>         0.1007
     14 C11        -0.1182    3.2477   -0.1748 C.ar      1 <0>        -0.1583
     15 N4          3.8483    5.1446   -5.2733 N.pl3     1 <0>        -0.6537
     16 C12         3.2647    6.2655   -5.8714 C.ar      1 <0>         0.1649
     17 C13         2.9647    6.2535   -7.2276 C.ar      1 <0>        -0.1387
     18 C14         2.3839    7.3604   -7.8148 C.ar      1 <0>        -0.0875
     19 C15         2.1105    8.4846   -7.0556 C.ar      1 <0>        -0.0528
     20 C16         2.4131    8.5013   -5.7053 C.ar      1 <0>        -0.0856
     21 C17         2.9892    7.3953   -5.1118 C.ar      1 <0>        -0.1041
     22 Cl1         1.3859    9.8764   -7.7983 Cl        1 <0>        -0.0699
     23 C18         5.2668    2.9830   -4.0229 C.3       1 <0>        -0.1120
     24 H1          3.9386    1.3886   -1.4545 H         1 <0>         0.0865
     25 H2          5.4983    2.2327   -1.6071 H         1 <0>         0.0801
     26 H3          4.4469    2.5518   -0.2068 H         1 <0>         0.0831
     27 H4          1.9523    4.7884    0.4176 H         1 <0>         0.1011
     28 H5          3.1550    3.4803    0.5209 H         1 <0>         0.0992
     29 H6          2.5132    1.1539    0.0312 H         1 <0>         0.1350
     30 H7          0.6617   -0.4685   -0.0321 H         1 <0>         0.1557
     31 H8         -2.1426    2.5816   -0.2733 H         1 <0>         0.1570
     32 H9         -0.3754    4.2957   -0.2176 H         1 <0>         0.1391
     33 H10         4.4940    4.6134   -5.7650 H         1 <0>         0.4197
     34 H11         3.1820    5.3780   -7.8215 H         1 <0>         0.1331
     35 H12         2.1466    7.3501   -8.8684 H         1 <0>         0.1372
     36 H13         2.1984    9.3798   -5.1151 H         1 <0>         0.1370
     37 H14         3.2249    7.4087   -4.0579 H         1 <0>         0.1391
     38 H15         6.2244    3.4645   -3.8247 H         1 <0>         0.0827
     39 H16         5.2900    1.9598   -3.6478 H         1 <0>         0.0824
     40 H17         5.0809    2.9721   -5.0969 H         1 <0>         0.0687
@<TRIPOS>BOND
     1    1    2 1
     2    1   24 1
     3    1   25 1
     4    1   26 1
     5    2    7 ar
     6    2    3 ar
     7    3    4 ar
     8    3   23 1
     9    4    5 ar
    10    4   15 1
    11    5    6 ar
    12    6    7 ar
    13    7    8 1
    14    8    9 1
    15    8   27 1
    16    8   28 1
    17    9   14 ar
    18    9   10 ar
    19   10   11 ar
    20   10   29 1
    21   11   12 ar
    22   11   30 1
    23   12   13 ar
    24   13   14 ar
    25   13   31 1
    26   14   32 1
    27   15   16 1
    28   15   33 1
    29   16   21 ar
    30   16   17 ar
    31   17   18 ar
    32   17   34 1
    33   18   19 ar
    34   18   35 1
    35   19   20 ar
    36   19   22 1
    37   20   21 ar
    38   20   36 1
    39   21   37 1
    40   23   38 1
    41   23   39 1
    42   23   40 1
@<TRIPOS>MOLECULE
ZINC03832409
   60    64     0     0     0
SMALL
USER_CHARGES

@<TRIPOS>ATOM
      1 C1         -4.3905   15.9603    6.6715 C.3       1 <0>        -0.0464
      2 C2         -2.3744   14.7097    6.1856 C.3       1 <0>        -0.0268
      3 C3         -1.4751   14.2086    5.0531 C.3       1 <0>        -0.0264
      4 C4         -3.4087   13.9933    3.6130 C.3       1 <0>        -0.0332
      5 C5         -4.3079   14.4945    4.7455 C.3       1 <0>        -0.0259
      6 C6         -1.3925   12.7428    3.1271 C.3       1 <0>        -0.0033
      7 C7         -2.1498   11.6281    2.4025 C.3       1 <0>        -0.1759
      8 C8         -1.2642   11.0424    1.3010 C.3       1 <0>         0.1209
      9 N1         -1.9893    9.9751    0.6072 N.pl3     1 <0>        -0.4896
     10 C9         -1.8979    8.6461    0.9059 C.2       1 <0>         0.0539
     11 C10        -2.6945    7.9334    0.0728 C.2       1 <0>        -0.1045
     12 C11        -3.3483    8.9037   -0.8198 C.ar      1 <0>        -0.0897
     13 C12        -2.8673   10.1678   -0.4374 C.ar      1 <0>         0.0948
     14 C13        -3.3130   11.3002   -1.1113 C.ar      1 <0>        -0.1417
     15 C14        -4.2184   11.1747   -2.1421 C.ar      1 <0>        -0.0866
     16 C15        -4.6928    9.9262   -2.5190 C.ar      1 <0>        -0.1360
     17 C16        -4.2638    8.7926   -1.8651 C.ar      1 <0>        -0.0610
     18 C17        -2.8768    6.4621    0.0662 C.ar      1 <0>        -0.0673
     19 C18        -1.7698    5.6112    0.0555 C.ar      1 <0>        -0.0620
     20 C19        -1.9965    4.2346    0.0444 C.ar      1 <0>        -0.0660
     21 C20        -3.3093    3.7646    0.0549 C.ar      1 <0>         0.1115
     22 N2         -4.3269    4.6012    0.0696 N.ar      1 <0>        -0.4716
     23 C21        -4.1565    5.9078    0.0754 C.ar      1 <0>         0.1084
     24 C22        -0.8570    3.2843    0.0279 C.2       1 <0>        -0.0825
     25 C23        -1.0765    1.9102    0.0166 C.2       1 <0>        -0.1571
     26 C24        -0.0126    1.0758    0.0080 C.2       1 <0>        -0.1581
     27 S1          1.3613    2.2149    0.0010 S.3       1 <0>         0.0655
     28 C25         0.4320    3.7387    0.0180 C.2       1 <0>        -0.1731
     29 H1         -3.8150   16.6763    7.2582 H         1 <0>         0.1366
     30 H2         -5.2458   16.4638    6.2209 H         1 <0>         0.1366
     31 H3         -4.7418   15.1579    7.3204 H         1 <0>         0.1330
     32 H4         -2.7096   13.8635    6.7853 H         1 <0>         0.1559
     33 H5         -1.8152   15.4024    6.8146 H         1 <0>         0.1763
     34 H6         -0.6245   13.6726    5.4742 H         1 <0>         0.1756
     35 H7         -1.1176   15.0570    4.4696 H         1 <0>         0.1572
     36 H8         -3.0734   14.8395    3.0133 H         1 <0>         0.1582
     37 H9         -3.9677   13.3004    2.9843 H         1 <0>         0.1743
     38 H10        -4.6651   13.6458    5.3289 H         1 <0>         0.1560
     39 H11        -5.1585   15.0305    4.3244 H         1 <0>         0.1761
     40 H12        -0.4833   12.3360    3.5697 H         1 <0>         0.1467
     41 H13        -1.1313   13.5263    2.4158 H         1 <0>         0.1445
     42 H14        -3.0590   12.0349    1.9599 H         1 <0>         0.0954
     43 H15        -2.4110   10.8445    3.1138 H         1 <0>         0.0992
     44 H16        -0.3549   10.6357    1.7436 H         1 <0>         0.1029
     45 H17        -1.0029   11.8260    0.5897 H         1 <0>         0.0978
     46 H18        -1.2815    8.2258    1.6867 H         1 <0>         0.1721
     47 H19        -2.9503   12.2767   -0.8262 H         1 <0>         0.1123
     48 H20        -4.5620   12.0566   -2.6623 H         1 <0>         0.1297
     49 H21        -5.4023    9.8431   -3.3290 H         1 <0>         0.1316
     50 H22        -4.6352    7.8224   -2.1605 H         1 <0>         0.1286
     51 H23        -0.7653    6.0078    0.0519 H         1 <0>         0.1336
     52 H24        -3.4944    2.7005    0.0506 H         1 <0>         0.1610
     53 H25        -5.0189    6.5578    0.0872 H         1 <0>         0.1539
     54 H26        -2.0820    1.5159    0.0183 H         1 <0>         0.1405
     55 H27         0.0021   -0.0041    0.0020 H         1 <0>         0.1928
     56 H28         0.7942    4.7562    0.0200 H         1 <0>         0.1841
     57 N3         -3.5304   15.4186    5.5978 N.4       1 <0>        -0.4064
     58 H29        -3.1873   16.1958    5.0212 H         1 <0>         0.4406
     59 N4         -2.2524   13.2845    4.2010 N.4       1 <0>        -0.4059
     60 H30        -2.5953   12.5073    4.7777 H         1 <0>         0.4385
@<TRIPOS>BOND
     1    1   29 1
     2    1   30 1
     3    1   31 1
     4    1   57 1
     5    2    3 1
     6    2   32 1
     7    2   33 1
     8    2   57 1
     9    3   34 1
    10    3   35 1
    11    3   59 1
    12    4    5 1
    13    4   36 1
    14    4   37 1
    15    4   59 1
    16    5   38 1
    17    5   39 1
    18    5   57 1
    19    6    7 1
    20    6   40 1
    21    6   41 1
    22    6   59 1
    23    7    8 1
    24    7   42 1
    25    7   43 1
    26    8    9 1
    27    8   44 1
    28    8   45 1
    29    9   13 1
    30    9   10 1
    31   10   11 2
    32   10   46 1
    33   11   12 1
    34   11   18 1
    35   12   17 ar
    36   12   13 ar
    37   13   14 ar
    38   14   15 ar
    39   14   47 1
    40   15   16 ar
    41   15   48 1
    42   16   17 ar
    43   16   49 1
    44   17   50 1
    45   18   23 ar
    46   18   19 ar
    47   19   20 ar
    48   19   51 1
    49   20   21 ar
    50   20   24 1
    51   21   22 ar
    52   21   52 1
    53   22   23 ar
    54   23   53 1
    55   24   28 2
    56   24   25 1
    57   25   26 2
    58   25   54 1
    59   26   27 1
    60   26   55 1
    61   27   28 1
    62   28   56 1
    63   57   58 1
    64   59   60 1
@<TRIPOS>MOLECULE
ZINC03832410
   51    55     0     0     0
SMALL
USER_CHARGES

@<TRIPOS>ATOM
      1 C1          7.5089   -6.3271   -3.0905 C.ar      1 <0>        -0.0985
      2 C2          6.2950   -6.9642   -3.2699 C.ar      1 <0>        -0.1151
      3 C3          5.3505   -6.9554   -2.2606 C.ar      1 <0>        -0.1100
      4 C4          5.6158   -6.2991   -1.0690 C.ar      1 <0>         0.0540
      5 C5          6.8381   -5.6582   -0.8885 C.ar      1 <0>         0.1015
      6 C6          7.7820   -5.6747   -1.9027 C.ar      1 <0>        -0.1353
      7 O1          7.1054   -5.0176    0.2809 O.3       1 <0>        -0.4898
      8 O2          4.6865   -6.2862   -0.0766 O.3       1 <0>        -0.2533
      9 C7          3.8405   -5.2249   -0.0086 C.ar      1 <0>         0.1287
     10 C8          2.9495   -5.1160    1.0506 C.ar      1 <0>        -0.1365
     11 C9          2.0893   -4.0403    1.1223 C.ar      1 <0>        -0.0708
     12 C10         2.1152   -3.0616    0.1296 C.ar      1 <0>        -0.0409
     13 C11         3.0071   -3.1768   -0.9358 C.ar      1 <0>        -0.0872
     14 C12         3.8687   -4.2519   -0.9987 C.ar      1 <0>        -0.1810
     15 C13         1.1918   -1.9038    0.2036 C.2       1 <0>        -0.0979
     16 C14        -0.1482   -1.9468    0.4044 C.2       1 <0>         0.0600
     17 N1         -0.6532   -0.6745    0.4103 N.pl3     1 <0>        -0.4466
     18 C15         0.3501    0.2351    0.2123 C.ar      1 <0>         0.3463
     19 C16         1.5492   -0.4856    0.0737 C.ar      1 <0>        -0.2546
     20 C17         2.7395    0.2217   -0.1410 C.ar      1 <0>         0.4931
     21 N2          2.6827    1.5493   -0.2046 N.ar      1 <0>        -0.6029
     22 C18         1.5348    2.1880   -0.0691 C.ar      1 <0>         0.3612
     23 N3          0.3943    1.5645    0.1336 N.ar      1 <0>        -0.5712
     24 N4          3.9440   -0.4439   -0.2829 N.pl3     1 <0>        -0.8312
     25 C19        -2.0655   -0.3351    0.6011 C.3       1 <0>         0.1316
     26 C20        -2.5711   -0.9107    1.9401 C.3       1 <0>        -0.1342
     27 C21        -4.0221   -1.3599    1.6368 C.3       1 <0>        -0.1234
     28 C22        -3.9107   -1.9284    0.2003 C.3       1 <0>        -0.1244
     29 C23        -2.9173   -0.9822   -0.5051 C.3       1 <0>        -0.1366
     30 H1          8.2457   -6.3395   -3.8801 H         1 <0>         0.1345
     31 H2          6.0857   -7.4731   -4.1992 H         1 <0>         0.1353
     32 H3          4.4046   -7.4571   -2.4018 H         1 <0>         0.1367
     33 H4          8.7311   -5.1781   -1.7652 H         1 <0>         0.1377
     34 H5          7.5246   -5.5771    0.9490 H         1 <0>         0.3959
     35 H6          2.9302   -5.8743    1.8194 H         1 <0>         0.1353
     36 H7          1.3962   -3.9564    1.9463 H         1 <0>         0.1337
     37 H8          3.0262   -2.4228   -1.7088 H         1 <0>         0.1274
     38 H9          4.5629   -4.3394   -1.8213 H         1 <0>         0.1282
     39 H10        -0.7287   -2.8475    0.5390 H         1 <0>         0.1763
     40 H11         1.5321    3.2665   -0.1276 H         1 <0>         0.1987
     41 H12         3.9716   -1.4123   -0.2341 H         1 <0>         0.4118
     42 H13         4.7608    0.0577   -0.4311 H         1 <0>         0.4066
     43 H14        -2.1944    0.7472    0.5867 H         1 <0>         0.1106
     44 H15        -1.9632   -1.7634    2.2426 H         1 <0>         0.0768
     45 H16        -2.5633   -0.1421    2.7129 H         1 <0>         0.0768
     46 H17        -4.7033   -0.5094    1.6639 H         1 <0>         0.0732
     47 H18        -4.3408   -2.1339    2.3349 H         1 <0>         0.0744
     48 H19        -4.8805   -1.9025   -0.2965 H         1 <0>         0.0725
     49 H20        -3.5191   -2.9454    0.2218 H         1 <0>         0.0686
     50 H21        -3.4601   -0.2140   -1.0558 H         1 <0>         0.0789
     51 H22        -2.2797   -1.5480   -1.1844 H         1 <0>         0.0750
@<TRIPOS>BOND
     1    1    6 ar
     2    1    2 ar
     3    1   30 1
     4    2    3 ar
     5    2   31 1
     6    3    4 ar
     7    3   32 1
     8    4    5 ar
     9    4    8 1
    10    5    6 ar
    11    5    7 1
    12    6   33 1
    13    7   34 1
    14    8    9 1
    15    9   14 ar
    16    9   10 ar
    17   10   11 ar
    18   10   35 1
    19   11   12 ar
    20   11   36 1
    21   12   13 ar
    22   12   15 1
    23   13   14 ar
    24   13   37 1
    25   14   38 1
    26   15   19 1
    27   15   16 2
    28   16   17 1
    29   16   39 1
    30   17   18 1
    31   17   25 1
    32   18   23 ar
    33   18   19 ar
    34   19   20 ar
    35   20   21 ar
    36   20   24 1
    37   21   22 ar
    38   22   23 ar
    39   22   40 1
    40   24   41 1
    41   24   42 1
    42   25   29 1
    43   25   26 1
    44   25   43 1
    45   26   27 1
    46   26   44 1
    47   26   45 1
    48   27   28 1
    49   27   46 1
    50   27   47 1
    51   28   29 1
    52   28   48 1
    53   28   49 1
    54   29   50 1
    55   29   51 1
@<TRIPOS>MOLECULE
ZINC03832411
   60    63     0     0     0
SMALL
USER_CHARGES

@<TRIPOS>ATOM
      1 C1         -0.0158   -0.4306   -2.4987 C.3       1 <0>        -0.1535
      2 C2         -0.0366    1.0992   -2.4903 C.3       1 <0>        -0.0912
      3 C3         -0.7766    1.6061   -3.7298 C.3       1 <0>        -0.1540
      4 C4         -0.7527    1.5927   -1.2315 C.3       1 <0>        -0.0871
      5 C5         -0.0127    1.0858    0.0080 C.3       1 <0>        -0.1176
      6 C6         -0.7288    1.5792    1.2668 C.3       1 <0>        -0.1391
      7 C7         -0.7496    3.1091    1.2752 C.3       1 <0>         0.1164
      8 C8         -1.4896    3.6159    0.0357 C.3       1 <0>        -0.1260
      9 C9         -0.7734    3.1225   -1.2231 C.3       1 <0>        -0.1160
     10 N1         -1.4353    3.5815    2.4806 N.pl3     1 <0>        -0.6764
     11 C10        -0.7353    3.7167    3.6670 C.ar      1 <0>         0.5116
     12 C11        -1.3922    4.1777    4.8300 C.ar      1 <0>        -0.1295
     13 C12        -2.7555    4.5000    4.8354 C.ar      1 <0>        -0.0638
     14 C13        -3.3385    4.9353    5.9880 C.ar      1 <0>        -0.1015
     15 C14        -2.6014    5.0591    7.1633 C.ar      1 <0>        -0.0434
     16 C15        -1.2746    4.7493    7.1950 C.ar      1 <0>        -0.1151
     17 C16        -0.6433    4.2991    6.0273 C.ar      1 <0>         0.0372
     18 C17         0.7245    3.9629    5.9959 C.ar      1 <0>        -0.0881
     19 C18         1.2681    3.5325    4.8255 C.ar      1 <0>         0.0841
     20 C19         1.5707    4.0777    7.2375 C.3       1 <0>        -0.0721
     21 C20         1.4313    2.8012    8.0695 C.3       1 <0>        -0.0775
     22 C21         2.2775    2.9160    9.3112 C.ar      1 <0>        -0.0487
     23 C22         3.5950    2.4841    9.3146 C.ar      1 <0>        -0.1709
     24 C23         4.3417    2.6092   10.4708 C.ar      1 <0>         0.1060
     25 N2          3.8119    3.1229   11.5637 N.ar      1 <0>        -0.4824
     26 C24         2.5612    3.5396   11.5982 C.ar      1 <0>         0.1061
     27 C25         1.7553    3.4506   10.4790 C.ar      1 <0>        -0.1714
     28 H1         -1.0384   -0.8079   -2.4910 H         1 <0>         0.0560
     29 H2          0.4944   -0.7821   -3.3955 H         1 <0>         0.0589
     30 H3          0.5114   -0.7917   -1.6157 H         1 <0>         0.0560
     31 H4          0.9860    1.4765   -2.4981 H         1 <0>         0.0709
     32 H5         -0.2664    1.2545   -4.6266 H         1 <0>         0.0588
     33 H6         -1.7991    1.2288   -3.7221 H         1 <0>         0.0562
     34 H7         -0.7913    2.6960   -3.7239 H         1 <0>         0.0572
     35 H8         -1.7753    1.2154   -1.2238 H         1 <0>         0.0770
     36 H9          0.0021   -0.0041    0.0020 H         1 <0>         0.0834
     37 H10         1.0099    1.4631    0.0003 H         1 <0>         0.0682
     38 H11        -1.7514    1.2020    1.2746 H         1 <0>         0.0846
     39 H12        -0.2017    1.2182    2.1499 H         1 <0>         0.0653
     40 H13         0.2730    3.4864    1.2675 H         1 <0>         0.0911
     41 H14        -1.5044    4.7058    0.0417 H         1 <0>         0.0802
     42 H15        -2.5122    3.2386    0.0434 H         1 <0>         0.0820
     43 H16         0.2491    3.4998   -1.2308 H         1 <0>         0.0697
     44 H17        -1.3006    3.4836   -2.1062 H         1 <0>         0.0850
     45 H18        -2.3799    3.7996    2.4472 H         1 <0>         0.4330
     46 H19        -3.3395    4.4081    3.9317 H         1 <0>         0.1402
     47 H20        -4.3885    5.1878    5.9901 H         1 <0>         0.1499
     48 H21        -3.0884    5.4061    8.0627 H         1 <0>         0.1501
     49 H22        -0.7139    4.8503    8.1125 H         1 <0>         0.1535
     50 H23         2.3164    3.2742    4.7988 H         1 <0>         0.1843
     51 H24         2.6144    4.2148    6.9546 H         1 <0>         0.0939
     52 H25         1.2384    4.9330    7.8259 H         1 <0>         0.0960
     53 H26         0.3876    2.6642    8.3525 H         1 <0>         0.0827
     54 H27         1.7636    1.9460    7.4811 H         1 <0>         0.0826
     55 H28         4.0332    2.0584    8.4240 H         1 <0>         0.1346
     56 H29         5.3697    2.2783   10.4807 H         1 <0>         0.1585
     57 H30         2.1620    3.9548   12.5118 H         1 <0>         0.1587
     58 H31         0.7316    3.7930   10.5138 H         1 <0>         0.1345
     59 N3          0.5882    3.3933    3.6440 N.ar      1 <0>        -0.5520
     60 H32         1.0505    3.0635    2.7886 H         1 <0>         0.4629
@<TRIPOS>BOND
     1    1    2 1
     2    1   28 1
     3    1   29 1
     4    1   30 1
     5    2    3 1
     6    2    4 1
     7    2   31 1
     8    3   32 1
     9    3   33 1
    10    3   34 1
    11    4    9 1
    12    4    5 1
    13    4   35 1
    14    5    6 1
    15    5   36 1
    16    5   37 1
    17    6    7 1
    18    6   38 1
    19    6   39 1
    20    7    8 1
    21    7   10 1
    22    7   40 1
    23    8    9 1
    24    8   41 1
    25    8   42 1
    26    9   43 1
    27    9   44 1
    28   10   11 1
    29   10   45 1
    30   11   12 ar
    31   11   59 ar
    32   12   17 ar
    33   12   13 ar
    34   13   14 ar
    35   13   46 1
    36   14   15 ar
    37   14   47 1
    38   15   16 ar
    39   15   48 1
    40   16   17 ar
    41   16   49 1
    42   17   18 ar
    43   18   19 ar
    44   18   20 1
    45   19   50 1
    46   19   59 ar
    47   20   21 1
    48   20   51 1
    49   20   52 1
    50   21   22 1
    51   21   53 1
    52   21   54 1
    53   22   27 ar
    54   22   23 ar
    55   23   24 ar
    56   23   55 1
    57   24   25 ar
    58   24   56 1
    59   25   26 ar
    60   26   27 ar
    61   26   57 1
    62   27   58 1
    63   59   60 1
@<TRIPOS>MOLECULE
ZINC03832412
   34    38     0     0     0
SMALL
USER_CHARGES

@<TRIPOS>ATOM
      1 C1          0.5900    9.0336    0.0471 C.3       1 <0>        -0.1132
      2 C2         -0.6060    8.1168    0.0534 C.ar      1 <0>        -0.1052
      3 C3         -1.8859    8.6509    0.0695 C.ar      1 <0>        -0.0764
      4 C4         -2.9906    7.8270    0.0756 C.ar      1 <0>        -0.1300
      5 C5         -2.8284    6.4448    0.0653 C.ar      1 <0>         0.1236
      6 C6         -1.5325    5.9060    0.0495 C.ar      1 <0>        -0.0930
      7 C7         -0.4239    6.7512    0.0437 C.ar      1 <0>        -0.0569
      8 C8         -1.6912    4.4418    0.0425 C.ar      1 <0>        -0.0585
      9 C9         -0.7736    3.3779    0.0276 C.ar      1 <0>        -0.0522
     10 C10        -1.2233    2.0541    0.0184 C.ar      1 <0>        -0.1428
     11 C11        -2.6078    1.7843    0.0370 C.ar      1 <0>        -0.0344
     12 C12        -3.1050    0.4723    0.0353 C.ar      1 <0>         0.1561
     13 N1         -4.4005    0.2606    0.0473 N.ar      1 <0>        -0.4726
     14 C13        -5.2864    1.2457    0.0613 C.ar      1 <0>         0.0929
     15 C14        -4.9044    2.5546    0.0641 C.ar      1 <0>        -0.1561
     16 C15        -3.5330    2.8590    0.0519 C.ar      1 <0>        -0.0086
     17 C16        -3.0701    4.1935    0.0546 C.ar      1 <0>         0.1753
     18 N2         -3.7308    5.3987    0.0680 N.pl3     1 <0>        -0.5834
     19 H1         -4.6954    5.5005    0.0780 H         1 <0>         0.4243
     20 C17        -0.0144    1.2108    0.0087 C.2       1 <0>         0.5842
     21 O1          0.0021   -0.0041    0.0020 O.2       1 <0>        -0.4549
     22 N3          1.0673    2.0100    0.0027 N.am      1 <0>        -0.6795
     23 C18         0.7040    3.3049    0.0131 C.2       1 <0>         0.5773
     24 O2          1.4613    4.2543    0.0110 O.2       1 <0>        -0.4485
     25 H2          0.8684    9.2607   -0.9820 H         1 <0>         0.0720
     26 H3          0.3420    9.9580    0.5688 H         1 <0>         0.0682
     27 H4          1.4248    8.5453    0.5500 H         1 <0>         0.0692
     28 H5         -2.0181    9.7228    0.0773 H         1 <0>         0.1342
     29 H6         -3.9825    8.2540    0.0874 H         1 <0>         0.1299
     30 H7          0.5735    6.3372    0.0312 H         1 <0>         0.1425
     31 H8         -2.4215   -0.3638    0.0241 H         1 <0>         0.1797
     32 H9         -6.3393    1.0055    0.0703 H         1 <0>         0.1627
     33 H10        -5.6426    3.3428    0.0752 H         1 <0>         0.1396
     34 H11         1.9848    1.6952   -0.0073 H         1 <0>         0.4347
@<TRIPOS>BOND
     1    1    2 1
     2    1   25 1
     3    1   26 1
     4    1   27 1
     5    2    7 ar
     6    2    3 ar
     7    3    4 ar
     8    3   28 1
     9    4    5 ar
    10    4   29 1
    11    5   18 1
    12    5    6 ar
    13    6    7 ar
    14    6    8 1
    15    7   30 1
    16    8   17 ar
    17    8    9 ar
    18    9   23 1
    19    9   10 ar
    20   10   11 ar
    21   10   20 1
    22   11   16 ar
    23   11   12 ar
    24   12   13 ar
    25   12   31 1
    26   13   14 ar
    27   14   15 ar
    28   14   32 1
    29   15   16 ar
    30   15   33 1
    31   16   17 ar
    32   17   18 1
    33   18   19 1
    34   20   21 2
    35   20   22 am
    36   22   23 am
    37   22   34 1
    38   23   24 2
@<TRIPOS>MOLECULE
ZINC03834188
   79    84     0     0     0
SMALL
USER_CHARGES

@<TRIPOS>ATOM
      1 C1          1.1957    4.0656   -0.4671 C.3       1 <0>        -0.1839
      2 C2          1.3792    2.7129   -1.1580 C.3       1 <0>         0.1008
      3 N1          1.1818    1.6363   -0.1842 N.pl3     1 <0>        -0.2790
      4 C3          2.1409    1.1527    0.6598 C.2       1 <0>        -0.0526
      5 C4          1.5355    0.1522    1.4005 C.2       1 <0>        -0.1378
      6 C5          0.2175    0.0981    0.9415 C.2       1 <0>         0.0292
      7 N2          0.0808    1.0029    0.0060 N.2       1 <0>        -0.2642
      8 C6         -0.8564   -0.8367    1.4354 C.3       1 <0>        -0.0715
      9 C7          3.5375    1.6042    0.7608 C.2       1 <0>         0.5949
     10 O1          4.3207    1.0042    1.4724 O.2       1 <0>        -0.4921
     11 N3          3.9491    2.6825    0.0649 N.am      1 <0>        -0.6813
     12 C8          5.2995    3.0462    0.0730 C.ar      1 <0>         0.1343
     13 C9          6.2832    2.0660    0.1298 C.ar      1 <0>        -0.0858
     14 C10         7.6183    2.4216    0.1326 C.ar      1 <0>        -0.0990
     15 C11         7.9826    3.7529    0.0905 C.ar      1 <0>        -0.0519
     16 C12         7.0031    4.7424    0.0388 C.ar      1 <0>        -0.0202
     17 C13         5.6576    4.3853    0.0301 C.ar      1 <0>        -0.0952
     18 C14         7.3933    6.1741   -0.0074 C.2       1 <0>         0.2405
     19 N4          6.5544    7.2279   -0.0597 N.2       1 <0>        -0.4688
     20 C15         7.3348    8.2999   -0.0859 C.2       1 <0>         0.2786
     21 O2          8.6036    7.8558   -0.0488 O.3       1 <0>         0.0749
     22 N5          8.6149    6.6443    0.0008 N.2       1 <0>        -0.3592
     23 C16         6.8996    9.6953   -0.1444 C.2       1 <0>        -0.2449
     24 C17         7.6578   10.8652   -0.1746 C.2       1 <0>         0.4120
     25 N6          7.0069   12.0060   -0.2273 N.2       1 <0>        -0.5282
     26 C18         5.6930   12.0533   -0.2511 C.2       1 <0>         0.0873
     27 S1          5.2482   10.3757   -0.2050 S.3       1 <0>         0.1862
     28 C19         4.7962   13.2629   -0.3106 C.3       1 <0>         0.0077
     29 C20         4.5216   13.6144   -1.7500 C.ar      1 <0>        -0.0949
     30 C21         5.3536   14.4961   -2.4278 C.ar      1 <0>         0.0596
     31 C22         5.0690   14.7885   -3.7492 C.ar      1 <0>        -0.1348
     32 C23         3.9591   14.2009   -4.3483 C.ar      1 <0>         0.3518
     33 C24         3.4374   13.0679   -2.4065 C.ar      1 <0>         0.1598
     34 N7          3.6586   14.4896   -5.6744 N.pl3     1 <0>        -0.4839
     35 C25         3.5047   15.9371   -5.8764 C.3       1 <0>         0.0218
     36 C26         3.2539   16.2187   -7.3597 C.3       1 <0>        -0.0019
     37 C27         2.2036   14.0506   -7.5937 C.3       1 <0>         0.0069
     38 C28         2.4543   13.7690   -6.1104 C.3       1 <0>        -0.0125
     39 C29         1.7320   15.8032   -9.1971 C.3       1 <0>        -0.0436
     40 N8          9.0490   10.8266   -0.1494 N.pl3     1 <0>        -0.8185
     41 C30         9.4401    4.1357    0.1001 C.3       1 <0>        -0.1307
     42 H1          1.3425    4.8665   -1.1917 H         1 <0>         0.0880
     43 H2          0.1889    4.1291   -0.0543 H         1 <0>         0.0808
     44 H3          1.9250    4.1648    0.3369 H         1 <0>         0.0652
     45 H4          2.3860    2.6493   -1.5708 H         1 <0>         0.0969
     46 H5          0.6499    2.6137   -1.9621 H         1 <0>         0.1178
     47 H6          1.9864   -0.4569    2.1700 H         1 <0>         0.1689
     48 H7         -0.8400   -1.7531    0.8454 H         1 <0>         0.0785
     49 H8         -0.6759   -1.0760    2.4834 H         1 <0>         0.0809
     50 H9         -1.8300   -0.3571    1.3347 H         1 <0>         0.0746
     51 H10         3.3088    3.2063   -0.4415 H         1 <0>         0.4079
     52 H11         6.0033    1.0236    0.1676 H         1 <0>         0.1438
     53 H12         8.3792    1.6562    0.1726 H         1 <0>         0.1413
     54 H13         4.8948    5.1488   -0.0103 H         1 <0>         0.1359
     55 H14         3.8561   13.0434    0.1956 H         1 <0>         0.1330
     56 H15         5.2863   14.1030    0.1815 H         1 <0>         0.1433
     57 H16         6.2059   14.9402   -1.9352 H         1 <0>         0.1908
     58 H17         5.6975   15.4666   -4.3074 H         1 <0>         0.1942
     59 H18         2.7853   12.3853   -1.8818 H         1 <0>         0.2072
     60 H19         2.6600   16.2984   -5.2898 H         1 <0>         0.0933
     61 H20         4.4137   16.4474   -5.5580 H         1 <0>         0.1489
     62 H21         4.1106   15.8820   -7.9436 H         1 <0>         0.1515
     63 H22         3.1109   17.2890   -7.5079 H         1 <0>         0.1565
     64 H23         3.0482   13.6893   -8.1803 H         1 <0>         0.1523
     65 H24         1.2947   13.5400   -7.9122 H         1 <0>         0.1552
     66 H25         2.5975   12.6986   -5.9626 H         1 <0>         0.1396
     67 H26         1.5978   14.1054   -5.5262 H         1 <0>         0.0916
     68 H27         0.7999   15.3106   -9.4739 H         1 <0>         0.1303
     69 H28         1.6235   16.8809   -9.3187 H         1 <0>         0.1317
     70 H29         2.5370   15.4444   -9.8386 H         1 <0>         0.1305
     71 H30         9.5099    9.9740   -0.1100 H         1 <0>         0.4220
     72 H31         9.5576   11.6523   -0.1711 H         1 <0>         0.4150
     73 H32         9.7750    4.2653    1.1292 H         1 <0>         0.0780
     74 H33        10.0255    3.3491   -0.3761 H         1 <0>         0.0740
     75 H34         9.5742    5.0695   -0.4459 H         1 <0>         0.0886
     76 N9          3.1245   13.3364   -3.7024 N.ar      1 <0>        -0.5156
     77 H35         2.3109   12.9149   -4.1657 H         1 <0>         0.4698
     78 N10         2.0286   15.5064   -7.7794 N.4       1 <0>        -0.4030
     79 H36         1.2426   15.8246   -7.2004 H         1 <0>         0.4308
@<TRIPOS>BOND
     1    1    2 1
     2    1   42 1
     3    1   43 1
     4    1   44 1
     5    2    3 1
     6    2   45 1
     7    2   46 1
     8    3    7 1
     9    3    4 1
    10    4    5 2
    11    4    9 1
    12    5    6 1
    13    5   47 1
    14    6    7 2
    15    6    8 1
    16    8   48 1
    17    8   49 1
    18    8   50 1
    19    9   10 2
    20    9   11 am
    21   11   12 1
    22   11   51 1
    23   12   17 ar
    24   12   13 ar
    25   13   14 ar
    26   13   52 1
    27   14   15 ar
    28   14   53 1
    29   15   16 ar
    30   15   41 1
    31   16   17 ar
    32   16   18 1
    33   17   54 1
    34   18   22 2
    35   18   19 1
    36   19   20 2
    37   20   21 1
    38   20   23 1
    39   21   22 1
    40   23   27 1
    41   23   24 2
    42   24   25 1
    43   24   40 1
    44   25   26 2
    45   26   27 1
    46   26   28 1
    47   28   29 1
    48   28   55 1
    49   28   56 1
    50   29   33 ar
    51   29   30 ar
    52   30   31 ar
    53   30   57 1
    54   31   32 ar
    55   31   58 1
    56   32   34 1
    57   32   76 ar
    58   33   59 1
    59   33   76 ar
    60   34   38 1
    61   34   35 1
    62   35   36 1
    63   35   60 1
    64   35   61 1
    65   36   62 1
    66   36   63 1
    67   36   78 1
    68   37   38 1
    69   37   64 1
    70   37   65 1
    71   37   78 1
    72   38   66 1
    73   38   67 1
    74   39   68 1
    75   39   69 1
    76   39   70 1
    77   39   78 1
    78   40   71 1
    79   40   72 1
    80   41   73 1
    81   41   74 1
    82   41   75 1
    83   76   77 1
    84   78   79 1
@<TRIPOS>MOLECULE
ZINC03834189
   43    45     0     0     0
SMALL
USER_CHARGES

@<TRIPOS>ATOM
      1 C1         -2.7073    1.0177   -2.4877 C.3       1 <0>         0.0307
      2 O1         -1.8533    0.8147   -1.3601 O.3       1 <0>        -0.3851
      3 C2         -1.6565   -0.5592   -1.0200 C.3       1 <0>         0.0624
      4 C3         -0.7311   -0.6565    0.1945 C.3       1 <0>         0.0533
      5 O2         -1.3732   -0.0741    1.3305 O.3       1 <0>        -0.2870
      6 C4         -0.6813   -0.0787    2.5001 C.ar      1 <0>         0.1585
      7 C5          0.5687   -0.6265    2.5402 C.ar      1 <0>        -0.1700
      8 C6          1.2863   -0.6326    3.7465 C.ar      1 <0>         0.1180
      9 C7          0.6962   -0.0670    4.9054 C.ar      1 <0>        -0.1046
     10 C8         -0.5867    0.4881    4.8367 C.ar      1 <0>        -0.1764
     11 C9         -1.2592    0.4844    3.6472 C.ar      1 <0>         0.1392
     12 O3         -2.5032    1.0278    3.5762 O.3       1 <0>        -0.2952
     13 C10        -3.0371    1.5856    4.7786 C.3       1 <0>         0.0206
     14 C11         1.4419   -0.0877    6.1079 C.ar      1 <0>         0.2211
     15 C12         2.7034   -0.6626    6.0636 C.ar      1 <0>        -0.0582
     16 N1          3.1711   -1.1661    4.9328 N.ar      1 <0>        -0.1834
     17 N2          2.5130   -1.1590    3.8304 N.ar      1 <0>        -0.2492
     18 N3          0.9318    0.4460    7.2838 N.pl3     1 <0>        -0.6530
     19 C13         1.7359    0.5162    8.4267 C.ar      1 <0>         0.1249
     20 C14         3.0582    0.9268    8.3229 C.ar      1 <0>        -0.1089
     21 C15         3.8500    0.9953    9.4528 C.ar      1 <0>        -0.0889
     22 C16         3.3273    0.6557   10.6883 C.ar      1 <0>        -0.0221
     23 C17         2.0101    0.2454   10.7965 C.ar      1 <0>        -0.1198
     24 C18         1.2107    0.1803    9.6700 C.ar      1 <0>         0.0915
     25 F1         -0.0770   -0.2145    9.7762 F         1 <0>        -0.1263
     26 Cl1         4.3263    0.7439   12.1053 Cl        1 <0>        -0.0460
     27 H1         -3.6898    0.5938   -2.2804 H         1 <0>         0.0435
     28 H2         -2.8059    2.0859   -2.6811 H         1 <0>         0.0883
     29 H3         -2.2775    0.5284   -3.3618 H         1 <0>         0.0427
     30 H4         -1.2049   -1.0813   -1.8636 H         1 <0>         0.0761
     31 H5         -2.6172   -1.0159   -0.7823 H         1 <0>         0.0636
     32 H6         -0.5096   -1.7038    0.3996 H         1 <0>         0.0861
     33 H7          0.1966   -0.1226   -0.0118 H         1 <0>         0.0797
     34 H8          1.0034   -1.0528    1.6481 H         1 <0>         0.1586
     35 H9         -1.0403    0.9200    5.7166 H         1 <0>         0.1407
     36 H10        -3.0992    0.8105    5.5424 H         1 <0>         0.0585
     37 H11        -2.3866    2.3878    5.1271 H         1 <0>         0.0585
     38 H12        -4.0327    1.9841    4.5835 H         1 <0>         0.1084
     39 H13         3.3077   -0.6998    6.9579 H         1 <0>         0.1738
     40 H14         0.0181    0.7702    7.3130 H         1 <0>         0.4176
     41 H15         3.4673    1.1929    7.3595 H         1 <0>         0.1525
     42 H16         4.8785    1.3148    9.3718 H         1 <0>         0.1511
     43 H17         1.6049   -0.0194   11.7619 H         1 <0>         0.1545
@<TRIPOS>BOND
     1    1    2 1
     2    1   27 1
     3    1   28 1
     4    1   29 1
     5    2    3 1
     6    3    4 1
     7    3   30 1
     8    3   31 1
     9    4    5 1
    10    4   32 1
    11    4   33 1
    12    5    6 1
    13    6   11 ar
    14    6    7 ar
    15    7    8 ar
    16    7   34 1
    17    8   17 ar
    18    8    9 ar
    19    9   10 ar
    20    9   14 ar
    21   10   11 ar
    22   10   35 1
    23   11   12 1
    24   12   13 1
    25   13   36 1
    26   13   37 1
    27   13   38 1
    28   14   15 ar
    29   14   18 1
    30   15   16 ar
    31   15   39 1
    32   16   17 ar
    33   18   19 1
    34   18   40 1
    35   19   24 ar
    36   19   20 ar
    37   20   21 ar
    38   20   41 1
    39   21   22 ar
    40   21   42 1
    41   22   23 ar
    42   22   26 1
    43   23   24 ar
    44   23   43 1
    45   24   25 1
@<TRIPOS>MOLECULE
ZINC03834190
   44    46     0     0     0
SMALL
USER_CHARGES

@<TRIPOS>ATOM
      1 C1         10.1604   10.4459   -2.1956 C.3       1 <0>         0.0307
      2 O1          8.8551    9.9030   -1.9870 O.3       1 <0>        -0.3846
      3 C2          8.2474   10.3064   -0.7582 C.3       1 <0>         0.0628
      4 C3          6.8613    9.6691   -0.6414 C.3       1 <0>         0.0554
      5 O2          6.9960    8.2495   -0.5484 O.3       1 <0>        -0.2903
      6 C4          5.8504    7.5271   -0.4381 C.ar      1 <0>         0.1517
      7 C5          4.6467    8.1712   -0.4211 C.ar      1 <0>        -0.1795
      8 C6          3.4595    7.4294   -0.3068 C.ar      1 <0>         0.1776
      9 C7          3.5337    6.0192   -0.2050 C.ar      1 <0>        -0.1321
     10 C8          4.7830    5.3827   -0.2313 C.ar      1 <0>        -0.1644
     11 C9          5.9200    6.1302   -0.3428 C.ar      1 <0>         0.1149
     12 O3          7.1318    5.5136   -0.3622 O.3       1 <0>        -0.3001
     13 C10         7.1362    4.0881   -0.2615 C.3       1 <0>         0.0233
     14 C11         2.3340    5.2771   -0.0962 C.ar      1 <0>         0.2623
     15 C12         1.1369    5.9764   -0.0838 C.ar      1 <0>        -0.2579
     16 C13         1.1482    7.3608   -0.1827 C.ar      1 <0>         0.1711
     17 N1          2.2676    8.0387   -0.2883 N.ar      1 <0>        -0.5094
     18 N2          2.3551    3.8930    0.0009 N.pl3     1 <0>        -0.6775
     19 C14         1.1564    3.1716   -0.0235 C.ar      1 <0>         0.1115
     20 C15         0.7287    2.4944    1.1107 C.ar      1 <0>        -0.0813
     21 C16        -0.4548    1.7825    1.0839 C.ar      1 <0>        -0.1070
     22 C17        -1.2179    1.7479   -0.0700 C.ar      1 <0>        -0.0083
     23 C18        -0.7928    2.4165   -1.2045 C.ar      1 <0>        -0.1372
     24 C19         0.3910    3.1309   -1.1841 C.ar      1 <0>         0.1121
     25 F1          0.8033    3.7888   -2.2898 F         1 <0>        -0.1202
     26 Cl1        -2.7081    0.8577   -0.0965 Cl        1 <0>        -0.0468
     27 H1         10.1036   11.5343   -2.2070 H         1 <0>         0.0421
     28 H2         10.8205   10.1249   -1.3897 H         1 <0>         0.0432
     29 H3         10.5528   10.0925   -3.1491 H         1 <0>         0.0880
     30 H4          8.1509   11.3919   -0.7398 H         1 <0>         0.0744
     31 H5          8.8677    9.9825    0.0775 H         1 <0>         0.0629
     32 H6          6.2702    9.9211   -1.5219 H         1 <0>         0.0770
     33 H7          6.3622   10.0460    0.2513 H         1 <0>         0.0834
     34 H8          4.6074    9.2479   -0.4957 H         1 <0>         0.1508
     35 H9          4.8456    4.3070   -0.1588 H         1 <0>         0.1345
     36 H10         8.1635    3.7251   -0.2892 H         1 <0>         0.1048
     37 H11         6.6702    3.7888    0.6773 H         1 <0>         0.0553
     38 H12         6.5780    3.6633   -1.0958 H         1 <0>         0.0558
     39 H13         0.1998    5.4464    0.0020 H         1 <0>         0.1297
     40 H14         0.2099    7.8954   -0.1720 H         1 <0>         0.1588
     41 H15         3.2008    3.4256    0.0858 H         1 <0>         0.4134
     42 H16         1.3209    2.5246    2.0134 H         1 <0>         0.1483
     43 H17        -0.7873    1.2559    1.9663 H         1 <0>         0.1481
     44 H18        -1.3882    2.3841   -2.1050 H         1 <0>         0.1528
@<TRIPOS>BOND
     1    1    2 1
     2    1   27 1
     3    1   28 1
     4    1   29 1
     5    2    3 1
     6    3    4 1
     7    3   30 1
     8    3   31 1
     9    4    5 1
    10    4   32 1
    11    4   33 1
    12    5    6 1
    13    6   11 ar
    14    6    7 ar
    15    7    8 ar
    16    7   34 1
    17    8   17 ar
    18    8    9 ar
    19    9   10 ar
    20    9   14 ar
    21   10   11 ar
    22   10   35 1
    23   11   12 1
    24   12   13 1
    25   13   36 1
    26   13   37 1
    27   13   38 1
    28   14   15 ar
    29   14   18 1
    30   15   16 ar
    31   15   39 1
    32   16   17 ar
    33   16   40 1
    34   18   19 1
    35   18   41 1
    36   19   24 ar
    37   19   20 ar
    38   20   21 ar
    39   20   42 1
    40   21   22 ar
    41   21   43 1
    42   22   23 ar
    43   22   26 1
    44   23   24 ar
    45   23   44 1
    46   24   25 1
@<TRIPOS>MOLECULE
ZINC03834191
   57    59     0     0     0
SMALL
USER_CHARGES

@<TRIPOS>ATOM
      1 C1          0.2005    2.5208   -6.4778 C.ar      1 <0>        -0.1399
      2 C2         -0.0440    1.2899   -7.0590 C.ar      1 <0>        -0.0265
      3 C3         -0.9689    0.4298   -6.4954 C.ar      1 <0>        -0.1391
      4 C4         -1.6513    0.8010   -5.3493 C.ar      1 <0>         0.1674
      5 C5         -1.4074    2.0330   -4.7673 C.ar      1 <0>        -0.1628
      6 C6         -0.4851    2.8954   -5.3347 C.ar      1 <0>         0.1653
      7 F1         -0.2502    4.1001   -4.7702 F         1 <0>        -0.1159
      8 C7         -2.1502    2.4379   -3.5202 C.3       1 <0>         0.1126
      9 O1         -1.4147    2.0165   -2.3697 O.3       1 <0>        -0.2861
     10 C8         -1.9502    2.3057   -1.1557 C.2       1 <0>         0.3570
     11 C9         -1.2943    1.9287    0.0187 C.2       1 <0>        -0.2930
     12 C10        -1.9426    2.2880    1.2044 C.2       1 <0>         0.1343
     13 S1         -3.3627    3.0849    0.6140 S.3       1 <0>         0.3921
     14 N1         -3.0907    2.9376   -1.0651 N.2       1 <0>        -0.5302
     15 N2         -1.5501    2.0644    2.5138 N.am      1 <0>        -0.6216
     16 C11        -2.3225    2.4937    3.5315 C.2       1 <0>         0.7032
     17 O2         -3.3637    3.0773    3.3001 O.2       1 <0>        -0.5426
     18 N3         -1.9407    2.2761    4.8056 N.am      1 <0>        -0.7336
     19 C12        -2.7802    2.7427    5.9117 C.3       1 <0>         0.1356
     20 C13        -2.1233    2.3710    7.2426 C.3       1 <0>        -0.1319
     21 C14        -3.0001    2.8583    8.3978 C.3       1 <0>        -0.1456
     22 C15        -2.3432    2.4866    9.7287 C.3       1 <0>         0.0011
     23 C16        -4.5824    2.4747   10.6847 C.3       1 <0>        -0.0101
     24 C17        -5.1552    2.5875   12.1199 C.3       1 <0>        -0.1485
     25 C18        -3.9561    2.1749   13.0041 C.3       1 <0>        -0.1478
     26 C19        -2.7112    2.4105   12.1290 C.3       1 <0>        -0.0098
     27 C20        -0.0144    1.2128    0.0087 C.2       1 <0>         0.5996
     28 O3          0.0021   -0.0041    0.0020 O.2       1 <0>        -0.5232
     29 N4          1.1435    1.9025    0.0014 N.am      1 <0>        -0.8424
     30 F2         -2.5547   -0.0393   -4.7990 F         1 <0>        -0.1140
     31 Br1         0.8871    0.7824   -8.6246 Br        1 <0>        -0.0061
     32 H1          0.9228    3.1920   -6.9184 H         1 <0>         0.1595
     33 H2         -1.1591   -0.5314   -6.9496 H         1 <0>         0.1600
     34 H3         -3.1339    1.9683   -3.5146 H         1 <0>         0.0929
     35 H4         -2.2649    3.5217   -3.5013 H         1 <0>         0.0932
     36 H5         -0.7195    1.5988    2.6984 H         1 <0>         0.4208
     37 H6         -1.1100    1.8105    4.9901 H         1 <0>         0.4048
     38 H7         -2.8918    3.8253    5.8515 H         1 <0>         0.0782
     39 H8         -3.7613    2.2722    5.8468 H         1 <0>         0.0778
     40 H9         -2.0117    1.2884    7.3028 H         1 <0>         0.0838
     41 H10        -1.1422    2.8415    7.3075 H         1 <0>         0.0841
     42 H11        -3.1117    3.9409    8.3376 H         1 <0>         0.0927
     43 H12        -3.9812    2.3878    8.3329 H         1 <0>         0.0929
     44 H13        -2.2316    1.4040    9.7889 H         1 <0>         0.1278
     45 H14        -1.3621    2.9571    9.7936 H         1 <0>         0.1319
     46 H15        -5.1360    3.1151    9.9981 H         1 <0>         0.1381
     47 H16        -4.5985    1.4393   10.3443 H         1 <0>         0.1336
     48 H17        -5.9901    1.9003   12.2570 H         1 <0>         0.1158
     49 H18        -5.4584    3.6122   12.3347 H         1 <0>         0.0983
     50 H19        -4.0324    1.1227   13.2781 H         1 <0>         0.1029
     51 H20        -3.9135    2.7972   13.8980 H         1 <0>         0.1048
     52 H21        -2.1885    1.4681   11.9654 H         1 <0>         0.1303
     53 H22        -2.0474    3.1272   12.6127 H         1 <0>         0.1331
     54 H23         1.9900    1.4290   -0.0093 H         1 <0>         0.4073
     55 H24         1.1303    2.8724    0.0067 H         1 <0>         0.4037
     56 N5         -3.2013    2.9507   10.8601 N.4       1 <0>        -0.3964
     57 H25        -3.1895    3.9769   10.8926 H         1 <0>         0.4306
@<TRIPOS>BOND
     1    1    6 ar
     2    1    2 ar
     3    1   32 1
     4    2    3 ar
     5    2   31 1
     6    3    4 ar
     7    3   33 1
     8    4    5 ar
     9    4   30 1
    10    5    6 ar
    11    5    8 1
    12    6    7 1
    13    8    9 1
    14    8   34 1
    15    8   35 1
    16    9   10 1
    17   10   14 2
    18   10   11 1
    19   11   12 2
    20   11   27 1
    21   12   13 1
    22   12   15 1
    23   13   14 1
    24   15   16 am
    25   15   36 1
    26   16   17 2
    27   16   18 am
    28   18   19 1
    29   18   37 1
    30   19   20 1
    31   19   38 1
    32   19   39 1
    33   20   21 1
    34   20   40 1
    35   20   41 1
    36   21   22 1
    37   21   42 1
    38   21   43 1
    39   22   44 1
    40   22   45 1
    41   22   56 1
    42   23   24 1
    43   23   46 1
    44   23   47 1
    45   23   56 1
    46   24   25 1
    47   24   48 1
    48   24   49 1
    49   25   26 1
    50   25   50 1
    51   25   51 1
    52   26   52 1
    53   26   53 1
    54   26   56 1
    55   27   28 2
    56   27   29 am
    57   29   54 1
    58   29   55 1
    59   56   57 1
@<TRIPOS>MOLECULE
ZINC03834193
   73    77     0     0     0
SMALL
USER_CHARGES

@<TRIPOS>ATOM
      1 C1          4.0655    9.7885   -0.7222 C.3       1 <0>        -0.0460
      2 C2          4.8779    7.7237    0.2482 C.3       1 <0>        -0.0263
      3 C3          5.0260    6.2198    0.0057 C.3       1 <0>        -0.0333
      4 C4          2.9784    6.2263   -1.2850 C.3       1 <0>        -0.0257
      5 C5          2.8303    7.7302   -1.0425 C.3       1 <0>        -0.0274
      6 C6          3.7908    4.1616   -0.3145 C.3       1 <0>         0.0049
      7 C7          4.0736    3.5171    1.0440 C.3       1 <0>         0.0140
      8 O1          2.9403    3.6879    1.8975 O.3       1 <0>        -0.3147
      9 C8          3.0279    3.1697    3.1501 C.ar      1 <0>         0.1482
     10 C9          4.1744    2.5118    3.5363 C.ar      1 <0>        -0.1693
     11 C10         4.2639    1.9828    4.8297 C.ar      1 <0>         0.1937
     12 C11         3.1680    2.1238    5.7177 C.ar      1 <0>        -0.1507
     13 C12         2.0113    2.7930    5.2980 C.ar      1 <0>        -0.1135
     14 C13         1.9477    3.3056    4.0338 C.ar      1 <0>         0.0991
     15 O2          0.8245    3.9554    3.6276 O.3       1 <0>        -0.3121
     16 C14        -0.2416    4.0613    4.5732 C.3       1 <0>         0.0189
     17 C15         3.2856    1.5754    7.0148 C.ar      1 <0>         0.4047
     18 N1          4.4129    0.9579    7.3349 N.ar      1 <0>        -0.5625
     19 C16         5.4120    0.8494    6.4729 C.ar      1 <0>         0.3584
     20 N2          5.3601    1.3375    5.2566 N.ar      1 <0>        -0.5307
     21 O3          2.2733    1.6788    7.9066 O.3       1 <0>        -0.2264
     22 C17         2.4905    1.2345    9.1731 C.ar      1 <0>         0.0624
     23 C18         1.9217    0.0418    9.5966 C.ar      1 <0>        -0.0731
     24 C19         2.1455   -0.4129   10.8811 C.ar      1 <0>        -0.1129
     25 C20         2.9310    0.3289   11.7530 C.ar      1 <0>         0.1991
     26 C21         3.4962    1.5257   11.3305 C.ar      1 <0>        -0.0623
     27 C22         3.2760    1.9765   10.0429 C.ar      1 <0>        -0.0756
     28 Cl1         4.4791    2.4540   12.4195 Cl        1 <0>        -0.0469
     29 N3          3.1533   -0.1292   13.0588 N.am      1 <0>        -0.6723
     30 C23         2.9683   -1.4304   13.3572 C.2       1 <0>         0.7136
     31 O4          2.6990   -2.2239   12.4761 O.2       1 <0>        -0.5447
     32 N4          3.0817   -1.8521   14.6323 N.am      1 <0>        -0.6674
     33 C24         3.0002   -3.2200   14.9280 C.ar      1 <0>         0.1198
     34 C25         3.2127   -4.1606   13.9300 C.ar      1 <0>        -0.0832
     35 C26         3.1319   -5.5083   14.2231 C.ar      1 <0>        -0.1372
     36 C27         2.8390   -5.9220   15.5117 C.ar      1 <0>         0.1163
     37 C28         2.6259   -4.9866   16.5099 C.ar      1 <0>        -0.1661
     38 C29         2.7119   -3.6364   16.2227 C.ar      1 <0>         0.1002
     39 F1          2.5100   -2.7232   17.1977 F         1 <0>        -0.1278
     40 F2          2.7607   -7.2406   15.7953 F         1 <0>        -0.1271
     41 H1          5.0672   10.2154   -0.6731 H         1 <0>         0.1361
     42 H2          3.5310   10.2127   -1.5722 H         1 <0>         0.1364
     43 H3          3.5270   10.0184    0.1971 H         1 <0>         0.1327
     44 H4          4.3155    7.8903    1.1670 H         1 <0>         0.1558
     45 H5          5.8653    8.1764    0.3391 H         1 <0>         0.1762
     46 H6          5.5315    5.7624    0.8562 H         1 <0>         0.1723
     47 H7          5.6118    6.0529   -0.8982 H         1 <0>         0.1600
     48 H8          3.5407    6.0598   -2.2037 H         1 <0>         0.1578
     49 H9          1.9910    5.7735   -1.3755 H         1 <0>         0.1766
     50 H10         2.2446    7.8968   -0.1384 H         1 <0>         0.1564
     51 H11         2.3248    8.1876   -1.8930 H         1 <0>         0.1764
     52 H12         4.6003    3.9243   -1.0048 H         1 <0>         0.1621
     53 H13         2.8510    3.7767   -0.7106 H         1 <0>         0.1562
     54 H14         4.2690    2.4534    0.9079 H         1 <0>         0.1244
     55 H15         4.9443    3.9914    1.4969 H         1 <0>         0.0907
     56 H16         5.0001    2.4082    2.8479 H         1 <0>         0.1555
     57 H17         1.1739    2.9034    5.9711 H         1 <0>         0.1597
     58 H18        -1.0748    4.6006    4.1226 H         1 <0>         0.1101
     59 H19        -0.5696    3.0634    4.8642 H         1 <0>         0.0660
     60 H20         0.1064    4.6007    5.4542 H         1 <0>         0.0633
     61 H21         6.3093    0.3359    6.7850 H         1 <0>         0.2083
     62 H22         1.3066   -0.5330    8.9201 H         1 <0>         0.1435
     63 H23         1.7056   -1.3431   11.2090 H         1 <0>         0.1794
     64 H24         3.7151    2.9068    9.7140 H         1 <0>         0.1403
     65 H25         3.4404    0.4904   13.7478 H         1 <0>         0.4166
     66 H26         3.2198   -1.2091   15.3453 H         1 <0>         0.4171
     67 H27         3.4415   -3.8393   12.9247 H         1 <0>         0.1759
     68 H28         3.2977   -6.2400   13.4463 H         1 <0>         0.1495
     69 H29         2.3977   -5.3113   17.5143 H         1 <0>         0.1567
     70 N5          4.1761    8.3255   -0.9052 N.4       1 <0>        -0.4060
     71 H30         4.7137    8.1358   -1.7591 H         1 <0>         0.4404
     72 N6          3.6802    5.6245   -0.1316 N.4       1 <0>        -0.4104
     73 H31         3.1426    5.8143    0.7224 H         1 <0>         0.4455
@<TRIPOS>BOND
     1    1   41 1
     2    1   42 1
     3    1   43 1
     4    1   70 1
     5    2    3 1
     6    2   44 1
     7    2   45 1
     8    2   70 1
     9    3   46 1
    10    3   47 1
    11    3   72 1
    12    4    5 1
    13    4   48 1
    14    4   49 1
    15    4   72 1
    16    5   50 1
    17    5   51 1
    18    5   70 1
    19    6    7 1
    20    6   52 1
    21    6   53 1
    22    6   72 1
    23    7    8 1
    24    7   54 1
    25    7   55 1
    26    8    9 1
    27    9   14 ar
    28    9   10 ar
    29   10   11 ar
    30   10   56 1
    31   11   20 ar
    32   11   12 ar
    33   12   13 ar
    34   12   17 ar
    35   13   14 ar
    36   13   57 1
    37   14   15 1
    38   15   16 1
    39   16   58 1
    40   16   59 1
    41   16   60 1
    42   17   18 ar
    43   17   21 1
    44   18   19 ar
    45   19   20 ar
    46   19   61 1
    47   21   22 1
    48   22   27 ar
    49   22   23 ar
    50   23   24 ar
    51   23   62 1
    52   24   25 ar
    53   24   63 1
    54   25   26 ar
    55   25   29 1
    56   26   27 ar
    57   26   28 1
    58   27   64 1
    59   29   30 am
    60   29   65 1
    61   30   31 2
    62   30   32 am
    63   32   33 1
    64   32   66 1
    65   33   38 ar
    66   33   34 ar
    67   34   35 ar
    68   34   67 1
    69   35   36 ar
    70   35   68 1
    71   36   37 ar
    72   36   40 1
    73   37   38 ar
    74   37   69 1
    75   38   39 1
    76   70   71 1
    77   72   73 1
@<TRIPOS>MOLECULE
ZINC03834194
   45    47     0     0     0
SMALL
USER_CHARGES

@<TRIPOS>ATOM
      1 C1         -0.5783    4.4098   -2.2581 C.3       1 <0>         0.0307
      2 O1         -0.0312    3.6913   -1.1505 O.3       1 <0>        -0.3848
      3 C2         -0.2793    2.2846   -1.1906 C.3       1 <0>         0.0625
      4 C3          0.3482    1.6209    0.0369 C.3       1 <0>         0.0551
      5 O2         -0.3078    2.0869    1.2178 O.3       1 <0>        -0.2886
      6 C4          0.1322    1.5915    2.4042 C.ar      1 <0>         0.1493
      7 C5          1.1580    0.6905    2.4192 C.ar      1 <0>        -0.1752
      8 C6          1.6166    0.1752    3.6427 C.ar      1 <0>         0.1515
      9 C7          1.0031    0.6021    4.8451 C.ar      1 <0>        -0.0951
     10 C8         -0.0490    1.5282    4.8008 C.ar      1 <0>        -0.1697
     11 C9         -0.4693    2.0164    3.5971 C.ar      1 <0>         0.1308
     12 O3         -1.4853    2.9192    3.5544 O.3       1 <0>        -0.2973
     13 C10        -2.0567    3.3124    4.8037 C.3       1 <0>         0.0236
     14 C11         1.4696    0.0794    6.0743 C.ar      1 <0>         0.1979
     15 C12         2.5133   -0.8325    6.0376 C.ar      1 <0>        -0.1779
     16 C13         3.0620   -1.2009    4.8171 C.ar      1 <0>         0.1362
     17 N1          2.6207   -0.7095    3.6825 N.ar      1 <0>        -0.4688
     18 N2          0.9006    0.4676    7.2789 N.pl3     1 <0>        -0.6860
     19 C14        -0.3752    0.0123    7.6289 C.ar      1 <0>         0.2001
     20 C15        -1.0261   -0.9155    6.8274 C.ar      1 <0>        -0.1738
     21 C16        -2.2897   -1.3645    7.1766 C.ar      1 <0>         0.1598
     22 C17        -2.9029   -0.8864    8.3269 C.ar      1 <0>        -0.0869
     23 C18        -2.2544    0.0384    9.1252 C.ar      1 <0>        -0.0849
     24 C19        -0.9906    0.4843    8.7833 C.ar      1 <0>         0.0357
     25 F1         -0.3564    1.3831    9.5677 F         1 <0>        -0.1310
     26 Cl1        -4.4859   -1.4496    8.7634 Cl        1 <0>        -0.0450
     27 O4         -2.9288   -2.2735    6.3931 O.3       1 <0>        -0.4817
     28 H1         -0.3470    5.4698   -2.1535 H         1 <0>         0.0882
     29 H2         -0.1456    4.0332   -3.1849 H         1 <0>         0.0423
     30 H3         -1.6596    4.2744   -2.2806 H         1 <0>         0.0436
     31 H4          0.1597    1.8639   -2.0953 H         1 <0>         0.0749
     32 H5         -1.3544    2.1051   -1.1910 H         1 <0>         0.0635
     33 H6          0.2364    0.5392   -0.0380 H         1 <0>         0.0837
     34 H7          1.4072    1.8743    0.0854 H         1 <0>         0.0771
     35 H8          1.6151    0.3748    1.4931 H         1 <0>         0.1524
     36 H9         -0.5208    1.8576    5.7147 H         1 <0>         0.1415
     37 H10        -1.2874    3.7666    5.4282 H         1 <0>         0.0566
     38 H11        -2.8543    4.0341    4.6274 H         1 <0>         0.1067
     39 H12        -2.4643    2.4366    5.3085 H         1 <0>         0.0572
     40 H13         2.8979   -1.2540    6.9546 H         1 <0>         0.1424
     41 H14         3.8745   -1.9123    4.8002 H         1 <0>         0.1650
     42 H15         1.3874    1.0546    7.8784 H         1 <0>         0.4203
     43 H16        -0.5485   -1.2866    5.9326 H         1 <0>         0.1458
     44 H17        -2.7335    0.4091   10.0193 H         1 <0>         0.1540
     45 H18        -2.7513   -3.1933    6.6330 H         1 <0>         0.3986
@<TRIPOS>BOND
     1    1    2 1
     2    1   28 1
     3    1   29 1
     4    1   30 1
     5    2    3 1
     6    3    4 1
     7    3   31 1
     8    3   32 1
     9    4    5 1
    10    4   33 1
    11    4   34 1
    12    5    6 1
    13    6   11 ar
    14    6    7 ar
    15    7    8 ar
    16    7   35 1
    17    8   17 ar
    18    8    9 ar
    19    9   10 ar
    20    9   14 ar
    21   10   11 ar
    22   10   36 1
    23   11   12 1
    24   12   13 1
    25   13   37 1
    26   13   38 1
    27   13   39 1
    28   14   15 ar
    29   14   18 1
    30   15   16 ar
    31   15   40 1
    32   16   17 ar
    33   16   41 1
    34   18   19 1
    35   18   42 1
    36   19   24 ar
    37   19   20 ar
    38   20   21 ar
    39   20   43 1
    40   21   22 ar
    41   21   27 1
    42   22   23 ar
    43   22   26 1
    44   23   24 ar
    45   23   44 1
    46   24   25 1
    47   27   45 1
@<TRIPOS>MOLECULE
ZINC03834195
   40    42     0     0     0
SMALL
USER_CHARGES

@<TRIPOS>ATOM
      1 C1         -0.3487    1.4425    0.1220 C.3       1 <0>        -0.0925
      2 C2         -0.9026    1.5351    1.5204 C.2       1 <0>        -0.0807
      3 C3         -2.2510    1.5163    1.8819 C.2       1 <0>        -0.1473
      4 C4         -2.3234    1.6184    3.2325 C.2       1 <0>         0.0540
      5 N1         -1.0668    1.7107    3.7359 N.pl3     1 <0>        -0.5388
      6 H1         -0.8381    1.7971    4.6746 H         1 <0>         0.4154
      7 C5         -0.1697    1.6610    2.6906 C.2       1 <0>        -0.0288
      8 C6          1.2352    1.7263    2.7926 C.2       1 <0>         0.0941
      9 C7          1.8237    2.6210    3.6659 C.2       1 <0>        -0.2094
     10 C8          1.1600    3.6967    4.4351 C.ar      1 <0>        -0.0927
     11 C9         -0.1593    4.1285    4.5279 C.ar      1 <0>        -0.0891
     12 C10        -0.4763    5.1868    5.3549 C.ar      1 <0>        -0.1377
     13 C11         0.5157    5.8162    6.0888 C.ar      1 <0>        -0.0898
     14 C12         1.8274    5.3960    6.0035 C.ar      1 <0>        -0.1381
     15 C13         2.1665    4.3310    5.1761 C.ar      1 <0>         0.1371
     16 N2          3.3842    3.7172    4.9097 N.am      1 <0>        -0.6551
     17 C14         3.2422    2.7058    4.0363 C.2       1 <0>         0.5628
     18 O1          4.1345    1.9871    3.6221 O.2       1 <0>        -0.5122
     19 C15        -3.5942    1.6340    4.0423 C.3       1 <0>        -0.0926
     20 C16        -3.4199    1.3992    0.9381 C.3       1 <0>        -0.0310
     21 C17        -3.7646   -0.0774    0.7339 C.3       1 <0>        -0.1472
     22 C18        -4.9336   -0.1945   -0.2099 C.2       1 <0>         0.4579
     23 O2         -5.4391    0.8010   -0.6719 O.co2     1 <0>        -0.6424
     24 H2         -0.1741    0.3968   -0.1312 H         1 <0>         0.0719
     25 H3          0.5913    1.9916    0.0664 H         1 <0>         0.0599
     26 H4         -1.0626    1.8722   -0.5808 H         1 <0>         0.0740
     27 H5          1.8513    1.0771    2.1881 H         1 <0>         0.1505
     28 H6         -0.9321    3.6375    3.9551 H         1 <0>         0.1420
     29 H7         -1.4992    5.5250    5.4298 H         1 <0>         0.1280
     30 H8          0.2602    6.6440    6.7336 H         1 <0>         0.1287
     31 H9          2.5918    5.8948    6.5807 H         1 <0>         0.1248
     32 H10         4.2285    3.9822    5.3070 H         1 <0>         0.4149
     33 H11        -3.9417    2.6611    4.1534 H         1 <0>         0.0759
     34 H12        -4.3571    1.0455    3.5326 H         1 <0>         0.0905
     35 H13        -3.4031    1.2066    5.0267 H         1 <0>         0.0634
     36 H14        -4.2807    1.9184    1.3596 H         1 <0>         0.0667
     37 H15        -3.1591    1.8474   -0.0207 H         1 <0>         0.0693
     38 H16        -2.9039   -0.5965    0.3124 H         1 <0>         0.0623
     39 H17        -4.0255   -0.5255    1.6927 H         1 <0>         0.0599
     40 O3         -5.4132   -1.4046   -0.5374 O.co2     1 <0>        -0.7784
@<TRIPOS>BOND
     1    1    2 1
     2    1   24 1
     3    1   25 1
     4    1   26 1
     5    2    7 2
     6    2    3 1
     7    3    4 2
     8    3   20 1
     9    4    5 1
    10    4   19 1
    11    5    6 1
    12    5    7 1
    13    7    8 1
    14    8    9 2
    15    8   27 1
    16    9   17 1
    17    9   10 1
    18   10   15 ar
    19   10   11 ar
    20   11   12 ar
    21   11   28 1
    22   12   13 ar
    23   12   29 1
    24   13   14 ar
    25   13   30 1
    26   14   15 ar
    27   14   31 1
    28   15   16 1
    29   16   17 am
    30   16   32 1
    31   17   18 2
    32   19   33 1
    33   19   34 1
    34   19   35 1
    35   20   21 1
    36   20   36 1
    37   20   37 1
    38   21   22 1
    39   21   38 1
    40   21   39 1
    41   22   23 2
    42   22   40 1
@<TRIPOS>MOLECULE
ZINC03834196
   48    51     0     0     0
SMALL
USER_CHARGES

@<TRIPOS>ATOM
      1 C1         -0.2094    7.8646    0.3478 C.3       1 <0>         0.0206
      2 O1          1.0270    7.2312    0.6829 O.3       1 <0>        -0.2985
      3 C2          1.0236    5.8737    0.7619 C.ar      1 <0>         0.1155
      4 C3         -0.1325    5.1860    0.5240 C.ar      1 <0>        -0.1497
      5 C4         -0.1371    3.7885    0.6051 C.ar      1 <0>        -0.1780
      6 C5          1.0548    3.0959    0.9329 C.ar      1 <0>         0.2023
      7 C6          2.2283    3.8208    1.1729 C.ar      1 <0>        -0.1829
      8 C7          2.2064    5.1954    1.0872 C.ar      1 <0>         0.1685
      9 O2          3.3435    5.9013    1.3200 O.3       1 <0>        -0.2907
     10 C8          4.5162    5.1530    1.6469 C.3       1 <0>         0.0578
     11 C9          5.6867    6.1120    1.8729 C.3       1 <0>        -0.1347
     12 C10         6.9422    5.3108    2.2229 C.3       1 <0>         0.1202
     13 N1          8.0630    6.2292    2.4393 N.pl3     1 <0>        -0.2934
     14 C11         8.8331    6.2924    3.5501 C.2       1 <0>        -0.0490
     15 C12         9.7413    7.2702    3.3241 C.2       1 <0>        -0.0499
     16 N2          9.4808    7.7562    2.1053 N.2       1 <0>        -0.2686
     17 N3          8.4808    7.1183    1.6076 N.2       1 <0>        -0.0825
     18 N4          1.0230    1.7558    1.0037 N.ar      1 <0>        -0.5367
     19 C13        -0.0917    1.1038    0.7731 C.ar      1 <0>         0.3408
     20 N5         -1.2268    1.7075    0.4590 N.ar      1 <0>        -0.5791
     21 C14        -1.3072    3.0286    0.3675 C.ar      1 <0>         0.4635
     22 N6         -2.4990    3.6452    0.0441 N.pl3     1 <0>        -0.6319
     23 C15        -3.6733    2.8902   -0.0543 C.ar      1 <0>         0.1443
     24 C16        -3.7434    1.6333    0.5312 C.ar      1 <0>        -0.1056
     25 C17        -4.9038    0.8903    0.4331 C.ar      1 <0>        -0.0729
     26 C18        -5.9967    1.3969   -0.2476 C.ar      1 <0>        -0.0889
     27 C19        -5.9314    2.6488   -0.8331 C.ar      1 <0>        -0.1008
     28 C20        -4.7745    3.3998   -0.7340 C.ar      1 <0>         0.0657
     29 F1         -4.7124    4.6247   -1.3005 F         1 <0>        -0.1333
     30 Br1        -7.5830    0.3758   -0.3784 Br        1 <0>        -0.0348
     31 H1         -0.0678    8.9450    0.3183 H         1 <0>         0.1086
     32 H2         -0.5436    7.5152   -0.6291 H         1 <0>         0.0586
     33 H3         -0.9597    7.6168    1.0986 H         1 <0>         0.0582
     34 H4         -1.0386    5.7180    0.2741 H         1 <0>         0.1401
     35 H5          3.1439    3.3060    1.4241 H         1 <0>         0.1569
     36 H6          4.3381    4.5768    2.5549 H         1 <0>         0.0746
     37 H7          4.7549    4.4751    0.8274 H         1 <0>         0.0763
     38 H8          5.8648    6.6882    0.9649 H         1 <0>         0.0976
     39 H9          5.4480    6.7899    2.6924 H         1 <0>         0.0867
     40 H10         6.7642    4.7346    3.1309 H         1 <0>         0.1119
     41 H11         7.1809    4.6330    1.4034 H         1 <0>         0.1061
     42 H12         8.7426    5.6837    4.4376 H         1 <0>         0.1922
     43 H13        10.5205    7.5965    3.9970 H         1 <0>         0.1915
     44 H14        -0.0816    0.0258    0.8382 H         1 <0>         0.2016
     45 H15        -2.5226    4.6018   -0.1149 H         1 <0>         0.4242
     46 H16        -2.8914    1.2369    1.0634 H         1 <0>         0.1828
     47 H17        -4.9582   -0.0874    0.8886 H         1 <0>         0.1450
     48 H18        -6.7860    3.0415   -1.3641 H         1 <0>         0.1499
@<TRIPOS>BOND
     1    1    2 1
     2    1   31 1
     3    1   32 1
     4    1   33 1
     5    2    3 1
     6    3    8 ar
     7    3    4 ar
     8    4    5 ar
     9    4   34 1
    10    5   21 ar
    11    5    6 ar
    12    6    7 ar
    13    6   18 ar
    14    7    8 ar
    15    7   35 1
    16    8    9 1
    17    9   10 1
    18   10   11 1
    19   10   36 1
    20   10   37 1
    21   11   12 1
    22   11   38 1
    23   11   39 1
    24   12   13 1
    25   12   40 1
    26   12   41 1
    27   13   17 1
    28   13   14 1
    29   14   15 2
    30   14   42 1
    31   15   16 1
    32   15   43 1
    33   16   17 2
    34   18   19 ar
    35   19   20 ar
    36   19   44 1
    37   20   21 ar
    38   21   22 1
    39   22   23 1
    40   22   45 1
    41   23   28 ar
    42   23   24 ar
    43   24   25 ar
    44   24   46 1
    45   25   26 ar
    46   25   47 1
    47   26   27 ar
    48   26   30 1
    49   27   28 ar
    50   27   48 1
    51   28   29 1
@<TRIPOS>MOLECULE
ZINC03834197
   54    58     0     0     0
SMALL
USER_CHARGES

@<TRIPOS>ATOM
      1 C1         -4.7656    6.6389    2.8004 C.ar      1 <0>        -0.0743
      2 C2         -5.3564    7.6735    3.4953 C.ar      1 <0>        -0.1923
      3 C3         -4.7177    8.2250    4.5975 C.ar      1 <0>         0.1166
      4 C4         -3.4852    7.7344    5.0064 C.ar      1 <0>        -0.1305
      5 C5         -2.8917    6.6967    4.3183 C.ar      1 <0>        -0.0662
      6 C6         -3.5307    6.1407    3.2117 C.ar      1 <0>        -0.0443
      7 C7         -2.8946    5.0245    2.4689 C.2       1 <0>        -0.1534
      8 C8         -1.6407    4.5176    2.8762 C.2       1 <0>         0.1870
      9 N1         -1.0839    3.5310    2.2163 N.2       1 <0>        -0.4417
     10 C9         -1.6881    2.9833    1.1558 C.2       1 <0>         0.2587
     11 C10        -1.3184    1.9489    0.2893 C.2       1 <0>        -0.1600
     12 C11        -2.3411    1.8099   -0.6524 C.2       1 <0>         0.1113
     13 N2         -3.2766    2.6946   -0.3975 N.2       1 <0>        -0.3018
     14 N3         -2.9039    3.4481    0.7212 N.pl3     1 <0>        -0.3112
     15 C12        -3.5148    4.4742    1.3830 C.2       1 <0>         0.1768
     16 C13        -0.0733    1.1440    0.3609 C.2       1 <0>        -0.0435
     17 C14        -0.1221   -0.2459    0.3252 C.2       1 <0>        -0.1481
     18 C15         1.0346   -0.9448    0.3873 C.2       1 <0>        -0.1697
     19 S1          2.2546    0.3530    0.5002 S.3       1 <0>         0.0438
     20 C16         1.1464    1.7517    0.4577 C.2       1 <0>        -0.1516
     21 O1         -5.3000    9.2474    5.2773 O.3       1 <0>        -0.3273
     22 C17        -6.5684    9.7032    4.8023 C.3       1 <0>         0.0240
     23 C18        -7.0624   10.8495    5.6871 C.3       1 <0>         0.0029
     24 C19        -6.2964   12.9174    6.6859 C.3       1 <0>        -0.0016
     25 C20        -5.2433   14.0228    6.5812 C.3       1 <0>        -0.1481
     26 C21        -5.4351   14.7809    5.2648 C.3       1 <0>        -0.1390
     27 C22        -5.3360   13.7945    4.0978 C.3       1 <0>        -0.1473
     28 C23        -6.3865   12.6956    4.2745 C.3       1 <0>        -0.0062
     29 H1         -5.2610    6.2129    1.9404 H         1 <0>         0.1328
     30 H2         -6.3153    8.0572    3.1794 H         1 <0>         0.1323
     31 H3         -2.9906    8.1654    5.8643 H         1 <0>         0.1399
     32 H4         -1.9326    6.3157    4.6367 H         1 <0>         0.1428
     33 H5         -1.1395    4.9438    3.7327 H         1 <0>         0.1818
     34 H6         -2.3591    1.0916   -1.4587 H         1 <0>         0.2050
     35 H7         -4.4737    4.8455    1.0529 H         1 <0>         0.1799
     36 H8         -1.0691   -0.7593    0.2487 H         1 <0>         0.1340
     37 H9          1.1821   -2.0146    0.3723 H         1 <0>         0.1879
     38 H10         1.3797    2.8054    0.4984 H         1 <0>         0.1811
     39 H11        -6.4670   10.0544    3.7755 H         1 <0>         0.0864
     40 H12        -7.2853    8.8828    4.8366 H         1 <0>         0.1103
     41 H13        -8.0680   11.1376    5.3806 H         1 <0>         0.1507
     42 H14        -7.0788   10.5245    6.7274 H         1 <0>         0.1418
     43 H15        -7.2916   13.3618    6.6765 H         1 <0>         0.1307
     44 H16        -6.1535   12.3665    7.6156 H         1 <0>         0.1293
     45 H17        -4.2475   13.5802    6.6045 H         1 <0>         0.0878
     46 H18        -5.3545   14.7126    7.4179 H         1 <0>         0.1129
     47 H19        -4.6603   15.5411    5.1659 H         1 <0>         0.0945
     48 H20        -6.4157   15.2569    5.2571 H         1 <0>         0.0821
     49 H21        -4.3417   13.3482    4.0820 H         1 <0>         0.0874
     50 H22        -5.5142   14.3209    3.1602 H         1 <0>         0.1122
     51 H23        -6.3091   11.9837    3.4527 H         1 <0>         0.1246
     52 H24        -7.3812   13.1413    4.2764 H         1 <0>         0.1320
     53 N4         -6.1317   11.9885    5.5475 N.4       1 <0>        -0.3962
     54 H25        -5.1683   11.6334    5.5441 H         1 <0>         0.4334
@<TRIPOS>BOND
     1    1    6 ar
     2    1    2 ar
     3    1   29 1
     4    2    3 ar
     5    2   30 1
     6    3    4 ar
     7    3   21 1
     8    4    5 ar
     9    4   31 1
    10    5    6 ar
    11    5   32 1
    12    6    7 1
    13    7   15 2
    14    7    8 1
    15    8    9 2
    16    8   33 1
    17    9   10 1
    18   10   14 1
    19   10   11 2
    20   11   12 1
    21   11   16 1
    22   12   13 2
    23   12   34 1
    24   13   14 1
    25   14   15 1
    26   15   35 1
    27   16   20 2
    28   16   17 1
    29   17   18 2
    30   17   36 1
    31   18   19 1
    32   18   37 1
    33   19   20 1
    34   20   38 1
    35   21   22 1
    36   22   23 1
    37   22   39 1
    38   22   40 1
    39   23   41 1
    40   23   42 1
    41   23   53 1
    42   24   25 1
    43   24   43 1
    44   24   44 1
    45   24   53 1
    46   25   26 1
    47   25   45 1
    48   25   46 1
    49   26   27 1
    50   26   47 1
    51   26   48 1
    52   27   28 1
    53   27   49 1
    54   27   50 1
    55   28   51 1
    56   28   52 1
    57   28   53 1
    58   53   54 1
@<TRIPOS>MOLECULE
ZINC03834198
   55    58     0     0     0
SMALL
USER_CHARGES

@<TRIPOS>ATOM
      1 C1          9.5937    7.7564    1.3128 C.3       1 <0>        -0.0424
      2 C2          8.0955    6.2784    2.5093 C.3       1 <0>         0.0015
      3 C3          6.9116    5.3228    2.3439 C.3       1 <0>        -0.1439
      4 C4          5.6868    6.1121    1.8735 C.3       1 <0>        -0.0977
      5 C5          6.0229    6.8268    0.5617 C.3       1 <0>        -0.1448
      6 C6          7.2325    7.7387    0.7787 C.3       1 <0>        -0.0013
      7 C7          4.5162    5.1530    1.6478 C.3       1 <0>         0.0551
      8 O1          3.3433    5.9014    1.3218 O.3       1 <0>        -0.2959
      9 C8          2.2061    5.1955    1.0895 C.ar      1 <0>         0.1621
     10 C9          2.2280    3.8209    1.1751 C.ar      1 <0>        -0.1791
     11 C10         1.0547    3.0959    0.9342 C.ar      1 <0>         0.2018
     12 C11        -0.1372    3.7886    0.6064 C.ar      1 <0>        -0.1784
     13 C12        -0.1329    5.1862    0.5262 C.ar      1 <0>        -0.1424
     14 C13         1.0231    5.8738    0.7651 C.ar      1 <0>         0.1099
     15 O2          1.0262    7.2314    0.6870 O.3       1 <0>        -0.3030
     16 C14        -0.2102    7.8648    0.3519 C.3       1 <0>         0.0198
     17 C15        -1.3073    3.0286    0.3688 C.ar      1 <0>         0.4666
     18 N1         -1.2268    1.7075    0.4599 N.ar      1 <0>        -0.5767
     19 C16        -0.0917    1.1039    0.7744 C.ar      1 <0>         0.3477
     20 N2          1.0230    1.7558    1.0049 N.ar      1 <0>        -0.5413
     21 N3         -2.4990    3.6452    0.0450 N.pl3     1 <0>        -0.6296
     22 C17        -3.6733    2.8902   -0.0535 C.ar      1 <0>         0.1377
     23 C18        -3.7434    1.6333    0.5320 C.ar      1 <0>        -0.1040
     24 C19        -4.9038    0.8903    0.4338 C.ar      1 <0>        -0.0731
     25 C20        -5.9967    1.3969   -0.2469 C.ar      1 <0>        -0.0858
     26 C21        -5.9314    2.6488   -0.8323 C.ar      1 <0>        -0.1006
     27 C22        -4.7745    3.3999   -0.7331 C.ar      1 <0>         0.0685
     28 F1         -4.7124    4.6249   -1.2995 F         1 <0>        -0.1332
     29 Br1        -7.5830    0.3759   -0.3778 Br        1 <0>        -0.0295
     30 H1         10.4413    7.1230    1.5747 H         1 <0>         0.1220
     31 H2          9.7795    8.2323    0.3500 H         1 <0>         0.1222
     32 H3          9.4624    8.5221    2.0773 H         1 <0>         0.1229
     33 H4          7.8522    7.0318    3.2584 H         1 <0>         0.1319
     34 H5          8.9730    5.7172    2.8304 H         1 <0>         0.1323
     35 H6          6.6924    4.8462    3.2994 H         1 <0>         0.1172
     36 H7          7.1590    4.5604    1.6052 H         1 <0>         0.0933
     37 H8          5.4144    6.8475    2.6306 H         1 <0>         0.1028
     38 H9          6.2567    6.0885   -0.2054 H         1 <0>         0.0890
     39 H10         5.1688    7.4247    0.2438 H         1 <0>         0.1207
     40 H11         6.9933    8.4853    1.5359 H         1 <0>         0.1313
     41 H12         7.4833    8.2382   -0.1571 H         1 <0>         0.1305
     42 H13         4.3387    4.5765    2.5557 H         1 <0>         0.0786
     43 H14         4.7545    4.4755    0.8279 H         1 <0>         0.0741
     44 H15         3.1436    3.3061    1.4263 H         1 <0>         0.1540
     45 H16        -1.0389    5.7181    0.2763 H         1 <0>         0.1414
     46 H17        -0.5440    7.5160   -0.6253 H         1 <0>         0.0597
     47 H18        -0.9607    7.6164    1.1022 H         1 <0>         0.0600
     48 H19        -0.0688    8.9452    0.3232 H         1 <0>         0.1093
     49 H20        -0.0817    0.0259    0.8398 H         1 <0>         0.2036
     50 H21        -2.5225    4.6017   -0.1142 H         1 <0>         0.4241
     51 H22        -2.8914    1.2368    1.0642 H         1 <0>         0.1818
     52 H23        -4.9582   -0.0874    0.8893 H         1 <0>         0.1463
     53 H24        -6.7859    3.0416   -1.3633 H         1 <0>         0.1515
     54 N4          8.3835    6.9153    1.2067 N.4       1 <0>        -0.3975
     55 H25         8.5473    6.1823    0.5066 H         1 <0>         0.4288
@<TRIPOS>BOND
     1    1   30 1
     2    1   31 1
     3    1   32 1
     4    1   54 1
     5    2    3 1
     6    2   33 1
     7    2   34 1
     8    2   54 1
     9    3    4 1
    10    3   35 1
    11    3   36 1
    12    4    5 1
    13    4    7 1
    14    4   37 1
    15    5    6 1
    16    5   38 1
    17    5   39 1
    18    6   40 1
    19    6   41 1
    20    6   54 1
    21    7    8 1
    22    7   42 1
    23    7   43 1
    24    8    9 1
    25    9   14 ar
    26    9   10 ar
    27   10   11 ar
    28   10   44 1
    29   11   20 ar
    30   11   12 ar
    31   12   13 ar
    32   12   17 ar
    33   13   14 ar
    34   13   45 1
    35   14   15 1
    36   15   16 1
    37   16   46 1
    38   16   47 1
    39   16   48 1
    40   17   18 ar
    41   17   21 1
    42   18   19 ar
    43   19   20 ar
    44   19   49 1
    45   21   22 1
    46   21   50 1
    47   22   27 ar
    48   22   23 ar
    49   23   24 ar
    50   23   51 1
    51   24   25 ar
    52   24   52 1
    53   25   26 ar
    54   25   29 1
    55   26   27 ar
    56   26   53 1
    57   27   28 1
    58   54   55 1
@<TRIPOS>MOLECULE
ZINC03834199
   59    62     0     0     0
SMALL
USER_CHARGES

@<TRIPOS>ATOM
      1 C1          2.0647    3.9971   -4.7711 C.3       1 <0>         0.0209
      2 O1          0.8510    3.2428   -4.7703 O.3       1 <0>        -0.3010
      3 C2          0.3584    2.8672   -3.5597 C.ar      1 <0>         0.1268
      4 C3          1.0250    3.2160   -2.4205 C.ar      1 <0>        -0.1535
      5 C4          0.5194    2.8301   -1.1705 C.ar      1 <0>        -0.0946
      6 C5         -0.6797    2.0810   -1.0938 C.ar      1 <0>         0.1626
      7 C6         -1.3465    1.7347   -2.2788 C.ar      1 <0>        -0.1680
      8 C7         -0.8290    2.1254   -3.4930 C.ar      1 <0>         0.1495
      9 O2         -1.4764    1.7889   -4.6390 O.3       1 <0>        -0.2936
     10 C8         -2.6816    1.0329   -4.5052 C.3       1 <0>         0.0562
     11 C9         -3.2634    0.7509   -5.8919 C.3       1 <0>        -0.1513
     12 C10        -4.5537   -0.0586   -5.7487 C.3       1 <0>        -0.0013
     13 C11        -5.5569    0.9134   -7.7276 C.3       1 <0>        -0.0443
     14 C12        -6.0753    0.5934   -9.1321 C.3       1 <0>         0.0347
     15 O3         -7.1246   -0.3738   -9.0387 O.3       1 <0>        -0.3563
     16 C13        -6.7262   -1.5969   -8.4137 C.3       1 <0>         0.0341
     17 C14        -6.2144   -1.2992   -7.0018 C.3       1 <0>        -0.0382
     18 N1         -1.1662    1.7050    0.0983 N.ar      1 <0>        -0.4621
     19 C15        -0.5699    2.0171    1.2205 C.ar      1 <0>         0.1860
     20 C16         0.6234    2.7571    1.2388 C.ar      1 <0>        -0.0728
     21 C17         1.1892    3.1777    0.0256 C.ar      1 <0>         0.2592
     22 N2          2.3607    3.9072    0.0004 N.pl3     1 <0>        -0.6971
     23 C18         3.5817    3.2622   -0.2242 C.ar      1 <0>         0.1921
     24 C19         3.6059    1.9114   -0.5428 C.ar      1 <0>        -0.1751
     25 C20         4.8167    1.2755   -0.7652 C.ar      1 <0>         0.1586
     26 C21         6.0037    1.9894   -0.6692 C.ar      1 <0>        -0.0803
     27 C22         5.9795    3.3355   -0.3522 C.ar      1 <0>        -0.0843
     28 C23         4.7727    3.9749   -0.1342 C.ar      1 <0>         0.0470
     29 F1          4.7509    5.2910    0.1703 F         1 <0>        -0.1278
     30 Cl1         7.5201    1.1917   -0.9480 Cl        1 <0>        -0.0378
     31 O4          4.8425   -0.0477   -1.0770 O.3       1 <0>        -0.4793
     32 C24         1.2563    3.0786    2.4824 C.1       1 <0>         0.2428
     33 N3          1.7585    3.3337    3.4690 N.1       1 <0>        -0.3768
     34 H1          1.9176    4.9228   -4.2148 H         1 <0>         0.0612
     35 H2          2.8560    3.4128   -4.3015 H         1 <0>         0.0608
     36 H3          2.3464    4.2311   -5.7978 H         1 <0>         0.1099
     37 H4          1.9395    3.7873   -2.4816 H         1 <0>         0.1503
     38 H5         -2.2625    1.1640   -2.2384 H         1 <0>         0.1546
     39 H6         -2.4651    0.0898   -4.0034 H         1 <0>         0.0795
     40 H7         -3.4030    1.6001   -3.9170 H         1 <0>         0.0790
     41 H8         -3.4799    1.6939   -6.3937 H         1 <0>         0.1002
     42 H9         -2.5420    0.1836   -6.4800 H         1 <0>         0.1011
     43 H10        -4.3372   -1.0017   -5.2468 H         1 <0>         0.1368
     44 H11        -5.2751    0.5086   -5.1605 H         1 <0>         0.1373
     45 H12        -6.3554    1.3649   -7.1389 H         1 <0>         0.1419
     46 H13        -4.7190    1.6070   -7.7981 H         1 <0>         0.1425
     47 H14        -5.2627    0.1915   -9.7373 H         1 <0>         0.0817
     48 H15        -6.4588    1.5030   -9.5945 H         1 <0>         0.1423
     49 H16        -5.9325   -2.0625   -8.9979 H         1 <0>         0.0816
     50 H17        -7.5805   -2.2715   -8.3564 H         1 <0>         0.1426
     51 H18        -5.8565   -2.2206   -6.5426 H         1 <0>         0.1424
     52 H19        -7.0235   -0.8830   -6.4016 H         1 <0>         0.1415
     53 H20        -1.0037    1.6939    2.1552 H         1 <0>         0.1788
     54 H21         2.3375    4.8671    0.1385 H         1 <0>         0.4258
     55 H22         2.6821    1.3569   -0.6176 H         1 <0>         0.1451
     56 H23         6.9040    3.8887   -0.2781 H         1 <0>         0.1575
     57 H24         4.7980   -0.2292   -2.0257 H         1 <0>         0.3975
     58 N4         -5.0935   -0.3401   -7.0966 N.4       1 <0>        -0.3952
     59 H25        -4.3506   -0.7503   -7.6746 H         1 <0>         0.4283
@<TRIPOS>BOND
     1    1    2 1
     2    1   34 1
     3    1   35 1
     4    1   36 1
     5    2    3 1
     6    3    8 ar
     7    3    4 ar
     8    4    5 ar
     9    4   37 1
    10    5   21 ar
    11    5    6 ar
    12    6    7 ar
    13    6   18 ar
    14    7    8 ar
    15    7   38 1
    16    8    9 1
    17    9   10 1
    18   10   11 1
    19   10   39 1
    20   10   40 1
    21   11   12 1
    22   11   41 1
    23   11   42 1
    24   12   43 1
    25   12   44 1
    26   12   58 1
    27   13   14 1
    28   13   45 1
    29   13   46 1
    30   13   58 1
    31   14   15 1
    32   14   47 1
    33   14   48 1
    34   15   16 1
    35   16   17 1
    36   16   49 1
    37   16   50 1
    38   17   51 1
    39   17   52 1
    40   17   58 1
    41   18   19 ar
    42   19   20 ar
    43   19   53 1
    44   20   21 ar
    45   20   32 1
    46   21   22 1
    47   22   23 1
    48   22   54 1
    49   23   28 ar
    50   23   24 ar
    51   24   25 ar
    52   24   55 1
    53   25   26 ar
    54   25   31 1
    55   26   27 ar
    56   26   30 1
    57   27   28 ar
    58   27   56 1
    59   28   29 1
    60   31   57 1
    61   32   33 3
    62   58   59 1
@<TRIPOS>MOLECULE
ZINC03834200
   63    69     0     0     0
SMALL
USER_CHARGES

@<TRIPOS>ATOM
      1 C1          3.3119    2.9845   -0.9041 C.ar      1 <0>        -0.1429
      2 C2          2.8692    4.0952   -0.1983 C.ar      1 <0>        -0.0873
      3 C3          1.5392    4.2341    0.1344 C.ar      1 <0>        -0.1070
      4 C4          0.6264    3.2540   -0.2385 C.ar      1 <0>         0.0748
      5 C5          1.0808    2.1303   -0.9537 C.ar      1 <0>        -0.1439
      6 C6          2.4334    2.0086   -1.2812 C.ar      1 <0>        -0.0603
      7 C7         -0.1032    1.3046   -1.1883 C.2       1 <0>        -0.1141
      8 C8         -1.1440    1.9701   -0.6236 C.2       1 <0>        -0.0081
      9 O1         -0.7018    3.1146   -0.0617 O.3       1 <0>        -0.1730
     10 C9         -2.5399    1.5116   -0.6221 C.2       1 <0>         0.6067
     11 O2         -2.8351    0.4591   -1.1563 O.2       1 <0>        -0.4976
     12 N1         -3.4934    2.2569   -0.0289 N.am      1 <0>        -0.6455
     13 C10        -4.8336    1.8692   -0.1084 C.ar      1 <0>         0.2085
     14 C11        -5.1788    0.5196   -0.1093 C.ar      1 <0>        -0.0144
     15 C12        -6.4956    0.1565   -0.1833 C.ar      1 <0>        -0.5831
     16 C13        -7.5257    1.0932   -0.2691 C.ar      1 <0>        -0.0454
     17 C14        -7.1590    2.4540   -0.2719 C.ar      1 <0>         0.0184
     18 C15        -5.8392    2.8251   -0.1934 C.ar      1 <0>        -0.6354
     19 S1         -5.4149    4.5353   -0.1999 S.o2      1 <0>         2.6786
     20 O3         -5.5466    4.9915    1.1395 O.2       1 <0>        -1.0405
     21 O4         -4.1997    4.6495   -0.9275 O.2       1 <0>        -1.0420
     22 C16        -8.9032    0.5370   -0.3487 C.ar      1 <0>        -0.0455
     23 C17       -10.1072    1.2635   -0.4423 C.ar      1 <0>         0.0185
     24 C18       -11.3152    0.6138   -0.5094 C.ar      1 <0>        -0.6355
     25 C19       -11.3804   -0.7745   -0.4862 C.ar      1 <0>         0.2086
     26 C20       -10.1995   -1.5075   -0.3941 C.ar      1 <0>        -0.0145
     27 C21        -8.9993   -0.8545   -0.3280 C.ar      1 <0>        -0.5830
     28 S2         -7.3198   -1.4151   -0.2069 S.o2      1 <0>         2.5766
     29 O5         -7.1518   -2.0139    1.0708 O.2       1 <0>        -0.9219
     30 O6         -6.9882   -2.0632   -1.4273 O.2       1 <0>        -0.9219
     31 N2        -12.6146   -1.4264   -0.5550 N.am      1 <0>        -0.6454
     32 C22       -12.8078   -2.5765    0.1205 C.2       1 <0>         0.6066
     33 O7        -11.8843   -3.0904    0.7234 O.2       1 <0>        -0.4976
     34 C23       -14.1336   -3.2098    0.1288 C.2       1 <0>        -0.0082
     35 C24       -14.4441   -4.3650    0.7725 C.2       1 <0>        -0.1140
     36 C25       -15.8611   -4.6091    0.5056 C.ar      1 <0>        -0.1439
     37 C26       -16.7633   -5.6098    0.8749 C.ar      1 <0>        -0.0603
     38 C27       -18.0592   -5.5445    0.4473 C.ar      1 <0>        -0.1429
     39 C28       -18.4846   -4.4909   -0.3505 C.ar      1 <0>        -0.0873
     40 C29       -17.6104   -3.4940   -0.7258 C.ar      1 <0>        -0.1070
     41 C30       -16.2867   -3.5391   -0.3034 C.ar      1 <0>         0.0747
     42 O8        -15.2280   -2.7287   -0.4971 O.3       1 <0>        -0.1728
     43 S3        -12.8020    1.5523   -0.6257 S.o2      1 <0>         2.6785
     44 O9        -12.9780    1.8656   -2.0005 O.2       1 <0>        -1.0405
     45 O10       -13.7833    0.8537    0.1281 O.2       1 <0>        -1.0420
     46 H1          4.3578    2.8917   -1.1570 H         1 <0>         0.1288
     47 H2          3.5750    4.8590    0.0929 H         1 <0>         0.1353
     48 H3          1.2066    5.1025    0.6836 H         1 <0>         0.1378
     49 H4          2.7831    1.1468   -1.8304 H         1 <0>         0.1295
     50 H5         -0.1428    0.3593   -1.7092 H         1 <0>         0.1735
     51 H6         -3.2493    3.0625    0.4532 H         1 <0>         0.4240
     52 H7         -4.4103   -0.2367   -0.0481 H         1 <0>         0.1553
     53 H8         -7.9243    3.2132   -0.3369 H         1 <0>         0.1574
     54 H9        -10.0796    2.3430   -0.4610 H         1 <0>         0.1574
     55 H10       -10.2313   -2.5869   -0.3752 H         1 <0>         0.1553
     56 H11       -13.3322   -1.0511   -1.0889 H         1 <0>         0.4240
     57 H12       -13.7793   -4.9787    1.3623 H         1 <0>         0.1736
     58 H13       -16.4378   -6.4313    1.4959 H         1 <0>         0.1295
     59 H14       -18.7576   -6.3175    0.7321 H         1 <0>         0.1288
     60 H15       -19.5122   -4.4520   -0.6805 H         1 <0>         0.1353
     61 H16       -17.9528   -2.6795   -1.3470 H         1 <0>         0.1378
     62 O11        -6.4784    5.2597   -1.0127 O.3       1 <0>        -1.0546
     63 O12       -12.5588    2.8715    0.0934 O.3       1 <0>        -1.0546
@<TRIPOS>BOND
     1    1    6 ar
     2    1    2 ar
     3    1   46 1
     4    2    3 ar
     5    2   47 1
     6    3    4 ar
     7    3   48 1
     8    4    9 1
     9    4    5 ar
    10    5    6 ar
    11    5    7 1
    12    6   49 1
    13    7    8 2
    14    7   50 1
    15    8    9 1
    16    8   10 1
    17   10   11 2
    18   10   12 am
    19   12   13 1
    20   12   51 1
    21   13   18 ar
    22   13   14 ar
    23   14   15 ar
    24   14   52 1
    25   15   28 1
    26   15   16 ar
    27   16   17 ar
    28   16   22 1
    29   17   18 ar
    30   17   53 1
    31   18   19 1
    32   19   20 2
    33   19   21 2
    34   19   62 1
    35   22   27 ar
    36   22   23 ar
    37   23   24 ar
    38   23   54 1
    39   24   25 ar
    40   24   43 1
    41   25   26 ar
    42   25   31 1
    43   26   27 ar
    44   26   55 1
    45   27   28 1
    46   28   29 2
    47   28   30 2
    48   31   32 am
    49   31   56 1
    50   32   33 2
    51   32   34 1
    52   34   42 1
    53   34   35 2
    54   35   36 1
    55   35   57 1
    56   36   41 ar
    57   36   37 ar
    58   37   38 ar
    59   37   58 1
    60   38   39 ar
    61   38   59 1
    62   39   40 ar
    63   39   60 1
    64   40   41 ar
    65   40   61 1
    66   41   42 1
    67   43   44 2
    68   43   45 2
    69   43   63 1
@<TRIPOS>MOLECULE
ZINC03834201
   32    34     0     0     0
SMALL
USER_CHARGES

@<TRIPOS>ATOM
      1 C1         -5.0680    1.3179   -1.4849 C.3       1 <0>        -0.0910
      2 C2         -4.1013    0.4257   -0.7497 C.2       1 <0>        -0.0952
      3 C3         -4.1948   -0.9600   -0.6073 C.2       1 <0>        -0.2006
      4 C4         -3.1297   -1.3785    0.1208 C.2       1 <0>         0.0511
      5 N1         -2.3632   -0.3049    0.4383 N.pl3     1 <0>        -0.5364
      6 H1         -1.5402   -0.3288    0.9512 H         1 <0>         0.4193
      7 C5         -2.9511    0.8258   -0.0870 C.2       1 <0>        -0.0106
      8 C6         -2.4683    2.1461    0.0241 C.2       1 <0>         0.0705
      9 C7         -1.1181    2.4023   -0.1195 C.2       1 <0>        -0.1869
     10 C8         -0.0653    1.4608   -0.5608 C.ar      1 <0>        -0.1042
     11 C9         -0.0813    0.1236   -0.9445 C.ar      1 <0>        -0.0885
     12 C10         1.0942   -0.4948   -1.3191 C.ar      1 <0>        -0.1393
     13 C11         2.2844    0.2139   -1.3133 C.ar      1 <0>        -0.0831
     14 C12         2.3110    1.5406   -0.9344 C.ar      1 <0>        -0.1359
     15 C13         1.1370    2.1811   -0.5531 C.ar      1 <0>         0.1442
     16 N2          0.8862    3.4824   -0.1360 N.am      1 <0>        -0.6544
     17 C14        -0.4171    3.6675    0.1342 C.2       1 <0>         0.5614
     18 O1         -0.9283    4.7045    0.5183 O.2       1 <0>        -0.5043
     19 C15        -2.8407   -2.8058    0.5084 C.3       1 <0>        -0.0934
     20 H2         -4.7594    1.4077   -2.5265 H         1 <0>         0.0697
     21 H3         -6.0680    0.8868   -1.4381 H         1 <0>         0.0700
     22 H4         -5.0757    2.3047   -1.0220 H         1 <0>         0.0649
     23 H5         -4.9776   -1.5880   -1.0064 H         1 <0>         0.1429
     24 H6         -3.1538    2.9570    0.2214 H         1 <0>         0.1533
     25 H7         -1.0098   -0.4280   -0.9495 H         1 <0>         0.1380
     26 H8          1.0861   -1.5327   -1.6177 H         1 <0>         0.1289
     27 H9          3.2004   -0.2767   -1.6077 H         1 <0>         0.1320
     28 H10         3.2452    2.0825   -0.9343 H         1 <0>         0.1287
     29 H11         1.5653    4.1698   -0.0511 H         1 <0>         0.4184
     30 H12        -2.2297   -3.2751   -0.2626 H         1 <0>         0.0779
     31 H13        -2.3048   -2.8232    1.4574 H         1 <0>         0.0671
     32 H14        -3.7787   -3.3515    0.6108 H         1 <0>         0.0857
@<TRIPOS>BOND
     1    1    2 1
     2    1   20 1
     3    1   21 1
     4    1   22 1
     5    2    7 2
     6    2    3 1
     7    3    4 2
     8    3   23 1
     9    4    5 1
    10    4   19 1
    11    5    6 1
    12    5    7 1
    13    7    8 1
    14    8    9 2
    15    8   24 1
    16    9   17 1
    17    9   10 1
    18   10   15 ar
    19   10   11 ar
    20   11   12 ar
    21   11   25 1
    22   12   13 ar
    23   12   26 1
    24   13   14 ar
    25   13   27 1
    26   14   15 ar
    27   14   28 1
    28   15   16 1
    29   16   17 am
    30   16   29 1
    31   17   18 2
    32   19   30 1
    33   19   31 1
    34   19   32 1
@<TRIPOS>MOLECULE
ZINC03834202
   59    63     0     0     0
SMALL
USER_CHARGES

@<TRIPOS>ATOM
      1 C1         -4.8284  -11.0632   -1.7756 C.3       1 <0>        -0.0463
      2 C2         -2.4301  -10.8896   -2.0635 C.3       1 <0>        -0.0271
      3 C3         -1.1378  -10.4125   -1.3966 C.3       1 <0>        -0.0261
      4 C4         -2.3580   -8.6268   -0.3098 C.3       1 <0>        -0.0327
      5 C5         -3.6503   -9.1040   -0.9767 C.3       1 <0>        -0.0265
      6 C6          0.0403   -8.4532   -0.5977 C.3       1 <0>        -0.0021
      7 C7          0.0199   -6.9234   -0.6059 C.3       1 <0>        -0.1707
      8 C8          1.3260   -6.3927   -0.0114 C.3       1 <0>         0.0964
      9 N1          1.3065   -4.9279   -0.0193 N.am      1 <0>        -0.5041
     10 C9          0.8073   -4.2611    1.0549 C.2       1 <0>         0.1154
     11 C10         0.7735   -2.9119    1.0803 C.2       1 <0>        -0.1907
     12 C11         1.2633   -2.1768   -0.0231 C.2       1 <0>         0.0801
     13 C12         1.7661   -2.8658   -1.1173 C.2       1 <0>        -0.2190
     14 C13         1.7827   -4.2664   -1.0902 C.2       1 <0>         0.5201
     15 O1          2.2255   -4.8887   -2.0429 O.2       1 <0>        -0.5442
     16 C14         1.2348   -0.6962   -0.0139 C.2       1 <0>        -0.1910
     17 C15         0.0021   -0.0041    0.0020 C.2       1 <0>         0.1951
     18 N2         -0.0157    1.3063    0.0092 N.2       1 <0>        -0.4409
     19 C16         1.1217    2.0117    0.0022 C.2       1 <0>         0.2572
     20 C17         1.3782    3.3861    0.0087 C.2       1 <0>        -0.1526
     21 C18         2.7666    3.5502   -0.0034 C.2       1 <0>         0.1155
     22 N3          3.3341    2.3675   -0.0162 N.2       1 <0>        -0.2945
     23 N4          2.3412    1.3813   -0.0129 N.pl3     1 <0>        -0.3160
     24 C19         2.4012    0.0194   -0.0212 C.2       1 <0>         0.2053
     25 C20         0.3644    4.4701    0.0246 C.2       1 <0>        -0.0453
     26 C21         0.4485    5.5089    0.9463 C.2       1 <0>        -0.1496
     27 C22        -0.4946    6.4787    0.9296 C.2       1 <0>        -0.1667
     28 S1         -1.5527    5.9537   -0.4083 S.3       1 <0>         0.0475
     29 C23        -0.6688    4.4730   -0.8692 C.2       1 <0>        -0.1532
     30 H1         -4.7698  -12.1474   -1.8716 H         1 <0>         0.1366
     31 H2         -5.6589  -10.8009   -1.1203 H         1 <0>         0.1363
     32 H3         -4.9869  -10.6195   -2.7585 H         1 <0>         0.1330
     33 H4         -2.5438  -10.3979   -3.0297 H         1 <0>         0.1563
     34 H5         -2.3877  -11.9692   -2.2077 H         1 <0>         0.1764
     35 H6         -0.2904  -10.6346   -2.0452 H         1 <0>         0.1763
     36 H7         -1.0103  -10.9245   -0.4429 H         1 <0>         0.1575
     37 H8         -2.2444   -9.1186    0.6564 H         1 <0>         0.1582
     38 H9         -2.4002   -7.5472   -0.1659 H         1 <0>         0.1735
     39 H10        -3.7778   -8.5920   -1.9304 H         1 <0>         0.1559
     40 H11        -4.4977   -8.8818   -0.3281 H         1 <0>         0.1758
     41 H12         0.8813   -8.8086   -1.1931 H         1 <0>         0.1485
     42 H13         0.1442   -8.8096    0.4271 H         1 <0>         0.1454
     43 H14        -0.8211   -6.5680   -0.0106 H         1 <0>         0.0934
     44 H15        -0.0841   -6.5669   -1.6308 H         1 <0>         0.1016
     45 H16         2.1670   -6.7481   -0.6068 H         1 <0>         0.1140
     46 H17         1.4300   -6.7492    1.0134 H         1 <0>         0.1046
     47 H18         0.4320   -4.8189    1.9001 H         1 <0>         0.1673
     48 H19         0.3732   -2.3960    1.9405 H         1 <0>         0.1565
     49 H20         2.1429   -2.3301   -1.9760 H         1 <0>         0.1576
     50 H21        -0.9262   -0.5560    0.0079 H         1 <0>         0.1798
     51 H22         3.2871    4.4965   -0.0025 H         1 <0>         0.2078
     52 H23         3.3549   -0.4872   -0.0338 H         1 <0>         0.1827
     53 H24         1.2547    5.5407    1.6642 H         1 <0>         0.1350
     54 H25        -0.5839    7.3485    1.5635 H         1 <0>         0.1891
     55 H26        -0.8936    3.7626   -1.6510 H         1 <0>         0.1805
     56 N5         -3.5700  -10.5657   -1.1799 N.4       1 <0>        -0.4062
     57 H27        -3.4279  -11.0217   -0.2710 H         1 <0>         0.4404
     58 N6         -1.2183   -8.9505   -1.1933 N.4       1 <0>        -0.4066
     59 H28        -1.3603   -8.4944   -2.1021 H         1 <0>         0.4395
@<TRIPOS>BOND
     1    1   30 1
     2    1   31 1
     3    1   32 1
     4    1   56 1
     5    2    3 1
     6    2   33 1
     7    2   34 1
     8    2   56 1
     9    3   35 1
    10    3   36 1
    11    3   58 1
    12    4    5 1
    13    4   37 1
    14    4   38 1
    15    4   58 1
    16    5   39 1
    17    5   40 1
    18    5   56 1
    19    6    7 1
    20    6   41 1
    21    6   42 1
    22    6   58 1
    23    7    8 1
    24    7   43 1
    25    7   44 1
    26    8    9 1
    27    8   45 1
    28    8   46 1
    29    9   14 am
    30    9   10 1
    31   10   11 2
    32   10   47 1
    33   11   12 1
    34   11   48 1
    35   12   13 2
    36   12   16 1
    37   13   14 1
    38   13   49 1
    39   14   15 2
    40   16   24 2
    41   16   17 1
    42   17   18 2
    43   17   50 1
    44   18   19 1
    45   19   23 1
    46   19   20 2
    47   20   21 1
    48   20   25 1
    49   21   22 2
    50   21   51 1
    51   22   23 1
    52   23   24 1
    53   24   52 1
    54   25   29 2
    55   25   26 1
    56   26   27 2
    57   26   53 1
    58   27   28 1
    59   27   54 1
    60   28   29 1
    61   29   55 1
    62   56   57 1
    63   58   59 1
@<TRIPOS>MOLECULE
ZINC04617981
   53    57     0     0     0
SMALL
USER_CHARGES

@<TRIPOS>ATOM
      1 C1          5.0247   10.2117   -5.1579 C.3       1 <0>         0.0616
      2 N1          3.6951    9.5979   -5.1999 N.pl3     1 <0>        -0.4146
      3 C2          2.7452    9.7911   -6.1532 C.2       1 <0>        -0.0203
      4 C3          1.6728    9.0386   -5.8048 C.2       1 <0>        -0.0219
      5 N2          1.9601    8.3959   -4.6753 N.2       1 <0>        -0.4433
      6 C4          3.1769    8.7184   -4.2910 C.2       1 <0>         0.1296
      7 C5          3.8630    8.2170   -3.0871 C.2       1 <0>         0.6130
      8 O1          4.9933    8.5870   -2.8328 O.2       1 <0>        -0.5131
      9 N3          3.2380    7.3484   -2.2677 N.am      1 <0>        -0.6464
     10 C6          3.9294    6.7787   -1.1944 C.ar      1 <0>         0.1638
     11 C7          3.2354    6.3449   -0.0713 C.ar      1 <0>        -0.1411
     12 C8          3.9184    5.7817    0.9889 C.ar      1 <0>        -0.0801
     13 C9          5.2930    5.6479    0.9360 C.ar      1 <0>        -0.1343
     14 C10         5.9916    6.0792   -0.1830 C.ar      1 <0>         0.1040
     15 C11         5.3090    6.6403   -1.2515 C.ar      1 <0>        -0.1449
     16 O2          7.3429    5.9462   -0.2339 O.3       1 <0>        -0.2530
     17 C12         8.1008    7.0596   -0.0540 C.ar      1 <0>         0.1738
     18 C13         7.4842    8.3042    0.0666 C.ar      1 <0>        -0.2129
     19 C14         8.2298    9.4318    0.2531 C.ar      1 <0>         0.0000
     20 C15         9.6221    9.3434    0.3134 C.ar      1 <0>        -0.1898
     21 C16        10.2520    8.0924    0.1869 C.ar      1 <0>         0.1639
     22 C17         9.4766    6.9506    0.0024 C.ar      1 <0>        -0.1801
     23 N4         11.6032    8.3119    0.2842 N.pl3     1 <0>        -0.5047
     24 H1         12.3091    7.6057    0.2308 H         1 <0>         0.4491
     25 N5         11.8382    9.6778    0.4697 N.2       1 <0>        -0.2410
     26 C18        10.6966   10.3293    0.4938 C.2       1 <0>         0.1295
     27 C19        10.5261   11.7797    0.6688 C.2       1 <0>        -0.0400
     28 C20        11.6034   12.5694    0.8245 C.2       1 <0>        -0.0875
     29 C21        11.4328   14.0212    0.9997 C.ar      1 <0>         0.1528
     30 C22        12.5557   14.8369    1.1669 C.ar      1 <0>        -0.1558
     31 C23        12.3782   16.1989    1.3254 C.ar      1 <0>        -0.0742
     32 C24        11.0846   16.7044    1.3227 C.ar      1 <0>        -0.1743
     33 C25        10.0175   15.8406    1.1576 C.ar      1 <0>         0.1043
     34 N6         10.2111   14.5469    1.0032 N.ar      1 <0>        -0.4795
     35 H2          5.7341    9.5787   -5.6908 H         1 <0>         0.0845
     36 H3          4.9869   11.1931   -5.6307 H         1 <0>         0.0905
     37 H4          5.3422   10.3201   -4.1208 H         1 <0>         0.1085
     38 H5          2.8284   10.4264   -7.0227 H         1 <0>         0.1879
     39 H6          0.7449    8.9688   -6.3530 H         1 <0>         0.1825
     40 H7          2.3084    7.1186   -2.4227 H         1 <0>         0.4262
     41 H8          2.1612    6.4480   -0.0275 H         1 <0>         0.1357
     42 H9          3.3772    5.4449    1.8607 H         1 <0>         0.1396
     43 H10         5.8242    5.2067    1.7665 H         1 <0>         0.1357
     44 H11         5.8504    6.9725   -2.1250 H         1 <0>         0.1525
     45 H12         6.4078    8.3759    0.0163 H         1 <0>         0.1372
     46 H13         7.7440   10.3915    0.3500 H         1 <0>         0.1338
     47 H14         9.9488    5.9843   -0.0964 H         1 <0>         0.1373
     48 H15         9.5358   12.2105    0.6723 H         1 <0>         0.1492
     49 H16        12.5938   12.1387    0.8211 H         1 <0>         0.1375
     50 H17        13.5477   14.4099    1.1685 H         1 <0>         0.1380
     51 H18        13.2266   16.8548    1.4527 H         1 <0>         0.1366
     52 H19        10.9135   17.7634    1.4480 H         1 <0>         0.1360
     53 H20         9.0111   16.2323    1.1549 H         1 <0>         0.1583
@<TRIPOS>BOND
     1    1    2 1
     2    1   35 1
     3    1   36 1
     4    1   37 1
     5    2    6 1
     6    2    3 1
     7    3    4 2
     8    3   38 1
     9    4    5 1
    10    4   39 1
    11    5    6 2
    12    6    7 1
    13    7    8 2
    14    7    9 am
    15    9   10 1
    16    9   40 1
    17   10   15 ar
    18   10   11 ar
    19   11   12 ar
    20   11   41 1
    21   12   13 ar
    22   12   42 1
    23   13   14 ar
    24   13   43 1
    25   14   15 ar
    26   14   16 1
    27   15   44 1
    28   16   17 1
    29   17   22 ar
    30   17   18 ar
    31   18   19 ar
    32   18   45 1
    33   19   20 ar
    34   19   46 1
    35   20   26 1
    36   20   21 ar
    37   21   22 ar
    38   21   23 1
    39   22   47 1
    40   23   24 1
    41   23   25 1
    42   25   26 2
    43   26   27 1
    44   27   28 2
    45   27   48 1
    46   28   29 1
    47   28   49 1
    48   29   34 ar
    49   29   30 ar
    50   30   31 ar
    51   30   50 1
    52   31   32 ar
    53   31   51 1
    54   32   33 ar
    55   32   52 1
    56   33   34 ar
    57   33   53 1
@<TRIPOS>MOLECULE
ZINC04617981
   53    57     0     0     0
SMALL
USER_CHARGES

@<TRIPOS>ATOM
      1 C1          5.0247   10.2117   -5.1579 C.3       1 <0>         0.0616
      2 N1          3.6951    9.5979   -5.1999 N.pl3     1 <0>        -0.4146
      3 C2          2.7452    9.7911   -6.1532 C.2       1 <0>        -0.0203
      4 C3          1.6728    9.0386   -5.8048 C.2       1 <0>        -0.0219
      5 N2          1.9601    8.3959   -4.6753 N.2       1 <0>        -0.4433
      6 C4          3.1769    8.7184   -4.2910 C.2       1 <0>         0.1296
      7 C5          3.8630    8.2170   -3.0871 C.2       1 <0>         0.6130
      8 O1          4.9933    8.5870   -2.8328 O.2       1 <0>        -0.5131
      9 N3          3.2380    7.3484   -2.2677 N.am      1 <0>        -0.6464
     10 C6          3.9294    6.7787   -1.1944 C.ar      1 <0>         0.1638
     11 C7          3.2354    6.3449   -0.0713 C.ar      1 <0>        -0.1411
     12 C8          3.9184    5.7817    0.9889 C.ar      1 <0>        -0.0801
     13 C9          5.2930    5.6479    0.9360 C.ar      1 <0>        -0.1343
     14 C10         5.9916    6.0792   -0.1830 C.ar      1 <0>         0.1040
     15 C11         5.3090    6.6403   -1.2515 C.ar      1 <0>        -0.1449
     16 O2          7.3429    5.9462   -0.2339 O.3       1 <0>        -0.2530
     17 C12         8.1008    7.0596   -0.0540 C.ar      1 <0>         0.1738
     18 C13         7.4842    8.3042    0.0666 C.ar      1 <0>        -0.2129
     19 C14         8.2298    9.4318    0.2531 C.ar      1 <0>         0.0000
     20 C15         9.6221    9.3434    0.3134 C.ar      1 <0>        -0.1898
     21 C16        10.2520    8.0924    0.1869 C.ar      1 <0>         0.1639
     22 C17         9.4766    6.9506    0.0024 C.ar      1 <0>        -0.1801
     23 N4         11.6032    8.3119    0.2842 N.pl3     1 <0>        -0.5047
     24 H1         12.3091    7.6057    0.2308 H         1 <0>         0.4491
     25 N5         11.8382    9.6778    0.4697 N.2       1 <0>        -0.2410
     26 C18        10.6966   10.3293    0.4938 C.2       1 <0>         0.1295
     27 C19        10.5261   11.7797    0.6688 C.2       1 <0>        -0.0400
     28 C20        11.6034   12.5694    0.8245 C.2       1 <0>        -0.0875
     29 C21        11.4328   14.0212    0.9997 C.ar      1 <0>         0.1528
     30 C22        12.5557   14.8369    1.1669 C.ar      1 <0>        -0.1558
     31 C23        12.3782   16.1989    1.3254 C.ar      1 <0>        -0.0742
     32 C24        11.0846   16.7044    1.3227 C.ar      1 <0>        -0.1743
     33 C25        10.0175   15.8406    1.1576 C.ar      1 <0>         0.1043
     34 N6         10.2111   14.5469    1.0032 N.ar      1 <0>        -0.4795
     35 H2          5.7341    9.5787   -5.6908 H         1 <0>         0.0845
     36 H3          4.9869   11.1931   -5.6307 H         1 <0>         0.0905
     37 H4          5.3422   10.3201   -4.1208 H         1 <0>         0.1085
     38 H5          2.8284   10.4264   -7.0227 H         1 <0>         0.1879
     39 H6          0.7449    8.9688   -6.3530 H         1 <0>         0.1825
     40 H7          2.3084    7.1186   -2.4227 H         1 <0>         0.4262
     41 H8          2.1612    6.4480   -0.0275 H         1 <0>         0.1357
     42 H9          3.3772    5.4449    1.8607 H         1 <0>         0.1396
     43 H10         5.8242    5.2067    1.7665 H         1 <0>         0.1357
     44 H11         5.8504    6.9725   -2.1250 H         1 <0>         0.1525
     45 H12         6.4078    8.3759    0.0163 H         1 <0>         0.1372
     46 H13         7.7440   10.3915    0.3500 H         1 <0>         0.1338
     47 H14         9.9488    5.9843   -0.0964 H         1 <0>         0.1373
     48 H15         9.5358   12.2105    0.6723 H         1 <0>         0.1492
     49 H16        12.5938   12.1387    0.8211 H         1 <0>         0.1375
     50 H17        13.5477   14.4099    1.1685 H         1 <0>         0.1380
     51 H18        13.2266   16.8548    1.4527 H         1 <0>         0.1366
     52 H19        10.9135   17.7634    1.4480 H         1 <0>         0.1360
     53 H20         9.0111   16.2323    1.1549 H         1 <0>         0.1583
@<TRIPOS>BOND
     1    1    2 1
     2    1   35 1
     3    1   36 1
     4    1   37 1
     5    2    6 1
     6    2    3 1
     7    3    4 2
     8    3   38 1
     9    4    5 1
    10    4   39 1
    11    5    6 2
    12    6    7 1
    13    7    8 2
    14    7    9 am
    15    9   10 1
    16    9   40 1
    17   10   15 ar
    18   10   11 ar
    19   11   12 ar
    20   11   41 1
    21   12   13 ar
    22   12   42 1
    23   13   14 ar
    24   13   43 1
    25   14   15 ar
    26   14   16 1
    27   15   44 1
    28   16   17 1
    29   17   22 ar
    30   17   18 ar
    31   18   19 ar
    32   18   45 1
    33   19   20 ar
    34   19   46 1
    35   20   26 1
    36   20   21 ar
    37   21   22 ar
    38   21   23 1
    39   22   47 1
    40   23   24 1
    41   23   25 1
    42   25   26 2
    43   26   27 1
    44   27   28 2
    45   27   48 1
    46   28   29 1
    47   28   49 1
    48   29   34 ar
    49   29   30 ar
    50   30   31 ar
    51   30   50 1
    52   31   32 ar
    53   31   51 1
    54   32   33 ar
    55   32   52 1
    56   33   34 ar
    57   33   53 1
@<TRIPOS>MOLECULE
ZINC04617981
   54    58     0     0     0
SMALL
USER_CHARGES

@<TRIPOS>ATOM
      1 C1          5.0247   10.2117   -5.1579 C.3       1 <0>         0.0428
      2 N1          3.6951    9.5979   -5.1999 N.pl3     1 <0>        -0.3509
      3 C2          2.7452    9.7911   -6.1532 C.2       1 <0>         0.0437
      4 C3          1.6728    9.0386   -5.8048 C.2       1 <0>         0.0316
      5 C4          3.1769    8.7184   -4.2910 C.cat     1 <0>         0.2285
      6 C5          3.8630    8.2170   -3.0871 C.2       1 <0>         0.5821
      7 O1          4.9933    8.5870   -2.8328 O.2       1 <0>        -0.4542
      8 N2          3.2380    7.3484   -2.2677 N.am      1 <0>        -0.6383
      9 C6          3.9294    6.7787   -1.1944 C.ar      1 <0>         0.1348
     10 C7          3.2354    6.3449   -0.0713 C.ar      1 <0>        -0.1291
     11 C8          3.9184    5.7817    0.9889 C.ar      1 <0>        -0.0764
     12 C9          5.2930    5.6479    0.9360 C.ar      1 <0>        -0.1156
     13 C10         5.9916    6.0792   -0.1830 C.ar      1 <0>         0.1126
     14 C11         5.3090    6.6403   -1.2515 C.ar      1 <0>        -0.1382
     15 O2          7.3429    5.9462   -0.2339 O.3       1 <0>        -0.2525
     16 C12         8.1008    7.0596   -0.0540 C.ar      1 <0>         0.1659
     17 C13         7.4842    8.3042    0.0666 C.ar      1 <0>        -0.2203
     18 C14         8.2298    9.4318    0.2531 C.ar      1 <0>         0.0017
     19 C15         9.6221    9.3434    0.3134 C.ar      1 <0>        -0.1875
     20 C16        10.2520    8.0924    0.1869 C.ar      1 <0>         0.1656
     21 C17         9.4766    6.9506    0.0024 C.ar      1 <0>        -0.1732
     22 N3         11.6032    8.3119    0.2842 N.pl3     1 <0>        -0.5022
     23 H1         12.3091    7.6057    0.2308 H         1 <0>         0.4516
     24 N4         11.8382    9.6778    0.4697 N.2       1 <0>        -0.2364
     25 C18        10.6966   10.3293    0.4938 C.2       1 <0>         0.1318
     26 C19        10.5261   11.7797    0.6688 C.2       1 <0>        -0.0502
     27 C20        11.6034   12.5694    0.8245 C.2       1 <0>        -0.0771
     28 C21        11.4328   14.0212    0.9997 C.ar      1 <0>         0.1474
     29 C22        12.5557   14.8369    1.1669 C.ar      1 <0>        -0.1525
     30 C23        12.3782   16.1989    1.3254 C.ar      1 <0>        -0.0733
     31 C24        11.0846   16.7044    1.3227 C.ar      1 <0>        -0.1704
     32 C25        10.0175   15.8406    1.1576 C.ar      1 <0>         0.1024
     33 N5         10.2111   14.5469    1.0032 N.ar      1 <0>        -0.4805
     34 H2          5.7341    9.5787   -5.6908 H         1 <0>         0.1196
     35 H3          4.9869   11.1931   -5.6307 H         1 <0>         0.1255
     36 H4          5.3422   10.3201   -4.1208 H         1 <0>         0.1306
     37 H5          2.8284   10.4264   -7.0227 H         1 <0>         0.2360
     38 H6          0.7449    8.9688   -6.3530 H         1 <0>         0.2361
     39 H7          2.3084    7.1186   -2.4227 H         1 <0>         0.4142
     40 H8          2.1612    6.4480   -0.0275 H         1 <0>         0.1384
     41 H9          3.3772    5.4449    1.8607 H         1 <0>         0.1473
     42 H10         5.8242    5.2067    1.7665 H         1 <0>         0.1441
     43 H11         5.8504    6.9725   -2.1250 H         1 <0>         0.1518
     44 H12         6.4078    8.3759    0.0163 H         1 <0>         0.1326
     45 H13         7.7440   10.3915    0.3500 H         1 <0>         0.1341
     46 H14         9.9488    5.9843   -0.0964 H         1 <0>         0.1395
     47 H15         9.5358   12.2105    0.6723 H         1 <0>         0.1488
     48 H16        12.5938   12.1387    0.8211 H         1 <0>         0.1383
     49 H17        13.5477   14.4099    1.1685 H         1 <0>         0.1392
     50 H18        13.2266   16.8548    1.4527 H         1 <0>         0.1386
     51 H19        10.9135   17.7634    1.4480 H         1 <0>         0.1375
     52 H20         9.0111   16.2323    1.1549 H         1 <0>         0.1583
     53 N6          1.9611    8.3969   -4.6761 N.pl3     1 <0>        -0.4531
     54 H21         1.3330    7.7517   -4.1827 H         1 <0>         0.4793
@<TRIPOS>BOND
     1    1    2 1
     2    1   34 1
     3    1   35 1
     4    1   36 1
     5    2    5 1
     6    2    3 1
     7    3    4 2
     8    3   37 1
     9    4   38 1
    10    4   53 1
    11    5    6 1
    12    5   53 2
    13    6    7 2
    14    6    8 am
    15    8    9 1
    16    8   39 1
    17    9   14 ar
    18    9   10 ar
    19   10   11 ar
    20   10   40 1
    21   11   12 ar
    22   11   41 1
    23   12   13 ar
    24   12   42 1
    25   13   14 ar
    26   13   15 1
    27   14   43 1
    28   15   16 1
    29   16   21 ar
    30   16   17 ar
    31   17   18 ar
    32   17   44 1
    33   18   19 ar
    34   18   45 1
    35   19   25 1
    36   19   20 ar
    37   20   21 ar
    38   20   22 1
    39   21   46 1
    40   22   23 1
    41   22   24 1
    42   24   25 2
    43   25   26 1
    44   26   27 2
    45   26   47 1
    46   27   28 1
    47   27   48 1
    48   28   33 ar
    49   28   29 ar
    50   29   30 ar
    51   29   49 1
    52   30   31 ar
    53   30   50 1
    54   31   32 ar
    55   31   51 1
    56   32   33 ar
    57   32   52 1
    58   53   54 1
@<TRIPOS>MOLECULE
ZINC04617982
   54    59     0     0     0
SMALL
USER_CHARGES

@<TRIPOS>ATOM
      1 C1          4.2200   -8.2542   -3.2725 C.ar      1 <0>        -0.0884
      2 C2          3.5223   -8.8969   -2.2652 C.ar      1 <0>        -0.1264
      3 C3          2.5325   -8.2300   -1.5734 C.ar      1 <0>        -0.0556
      4 C4          2.2355   -6.9037   -1.8916 C.ar      1 <0>        -0.1405
      5 C5          2.9395   -6.2628   -2.9125 C.ar      1 <0>        -0.0851
      6 C6          3.9305   -6.9396   -3.5929 C.ar      1 <0>        -0.1262
      7 C7          1.1759   -6.1830   -1.1549 C.2       1 <0>         0.5625
      8 O1          0.5610   -6.7452   -0.2697 O.2       1 <0>        -0.5123
      9 N1          0.8915   -4.9025   -1.4645 N.am      1 <0>        -0.6705
     10 C8         -0.1830   -4.2553   -0.8455 C.ar      1 <0>         0.1413
     11 C9         -1.3190   -4.9756   -0.4936 C.ar      1 <0>        -0.0918
     12 C10        -2.3836   -4.3411    0.1188 C.ar      1 <0>        -0.1047
     13 C11        -2.3267   -2.9882    0.3844 C.ar      1 <0>        -0.0775
     14 C12        -1.1903   -2.2552    0.0346 C.ar      1 <0>        -0.1357
     15 C13        -0.1174   -2.8952   -0.5881 C.ar      1 <0>        -0.1113
     16 C14        -1.1266   -0.8061    0.3173 C.2       1 <0>         0.4437
     17 O2         -2.1363   -0.1312    0.2627 O.2       1 <0>        -0.4378
     18 C15         0.1628   -0.1783    0.6660 C.ar      1 <0>        -0.1086
     19 C16         1.2940   -0.9800    0.8849 C.ar      1 <0>        -0.1255
     20 C17         2.4889   -0.4132    1.2071 C.ar      1 <0>        -0.0352
     21 C18         2.5960    0.9772    1.3219 C.ar      1 <0>        -0.1146
     22 C19         1.4686    1.7921    1.1042 C.ar      1 <0>         0.1173
     23 C20         0.2522    1.2065    0.7758 C.ar      1 <0>        -0.0738
     24 N2          1.8732    3.0919    1.2849 N.pl3     1 <0>        -0.4893
     25 H1          1.2878    3.8979    1.1970 H         1 <0>         0.4562
     26 N3          3.2328    3.1108    1.6112 N.2       1 <0>        -0.2175
     27 C21         3.7027    1.8842    1.6448 C.2       1 <0>         0.1553
     28 C22         5.0921    1.4904    1.9521 C.2       1 <0>         0.3519
     29 N4          6.1091    2.3576    2.2509 N.pl3     1 <0>        -0.5866
     30 H2          6.0442    3.3543    2.2991 H         1 <0>         0.4353
     31 C23         7.2415    1.5978    2.4733 C.ar      1 <0>         0.0596
     32 C24         8.5542    1.9004    2.8072 C.ar      1 <0>        -0.1130
     33 C25         9.4724    0.8830    2.9614 C.ar      1 <0>        -0.0928
     34 C26         9.0925   -0.4401    2.7859 C.ar      1 <0>        -0.1259
     35 C27         7.8052   -0.7578    2.4576 C.ar      1 <0>        -0.0582
     36 C28         6.8564    0.2571    2.2954 C.ar      1 <0>         0.0483
     37 N5          5.5370    0.2570    1.9855 N.2       1 <0>        -0.4563
     38 H3          4.9942   -8.7807   -3.8108 H         1 <0>         0.1299
     39 H4          3.7534   -9.9230   -2.0198 H         1 <0>         0.1327
     40 H5          1.9885   -8.7329   -0.7877 H         1 <0>         0.1381
     41 H6          2.7115   -5.2381   -3.1665 H         1 <0>         0.1260
     42 H7          4.4786   -6.4438   -4.3804 H         1 <0>         0.1315
     43 H8          1.4319   -4.4296   -2.1166 H         1 <0>         0.4122
     44 H9         -1.3697   -6.0346   -0.6992 H         1 <0>         0.1407
     45 H10        -3.2631   -4.9062    0.3900 H         1 <0>         0.1360
     46 H11        -3.1605   -2.4963    0.8630 H         1 <0>         0.1343
     47 H12         0.7622   -2.3330   -0.8650 H         1 <0>         0.1423
     48 H13         1.2158   -2.0536    0.7970 H         1 <0>         0.1473
     49 H14         3.3548   -1.0369    1.3737 H         1 <0>         0.1493
     50 H15        -0.6179    1.8224    0.6023 H         1 <0>         0.1441
     51 H16         8.8556    2.9284    2.9447 H         1 <0>         0.1261
     52 H17        10.4941    1.1176    3.2209 H         1 <0>         0.1333
     53 H18         9.8219   -1.2267    2.9106 H         1 <0>         0.1329
     54 H19         7.5203   -1.7909    2.3237 H         1 <0>         0.1330
@<TRIPOS>BOND
     1    1    6 ar
     2    1    2 ar
     3    1   38 1
     4    2    3 ar
     5    2   39 1
     6    3    4 ar
     7    3   40 1
     8    4    5 ar
     9    4    7 1
    10    5    6 ar
    11    5   41 1
    12    6   42 1
    13    7    8 2
    14    7    9 am
    15    9   10 1
    16    9   43 1
    17   10   15 ar
    18   10   11 ar
    19   11   12 ar
    20   11   44 1
    21   12   13 ar
    22   12   45 1
    23   13   14 ar
    24   13   46 1
    25   14   15 ar
    26   14   16 1
    27   15   47 1
    28   16   17 2
    29   16   18 1
    30   18   23 ar
    31   18   19 ar
    32   19   20 ar
    33   19   48 1
    34   20   21 ar
    35   20   49 1
    36   21   27 1
    37   21   22 ar
    38   22   23 ar
    39   22   24 1
    40   23   50 1
    41   24   25 1
    42   24   26 1
    43   26   27 2
    44   27   28 1
    45   28   37 2
    46   28   29 1
    47   29   30 1
    48   29   31 1
    49   31   36 ar
    50   31   32 ar
    51   32   33 ar
    52   32   51 1
    53   33   34 ar
    54   33   52 1
    55   34   35 ar
    56   34   53 1
    57   35   36 ar
    58   35   54 1
    59   36   37 1
@<TRIPOS>MOLECULE
ZINC04617982
   55    60     0     0     0
SMALL
USER_CHARGES

@<TRIPOS>ATOM
      1 C1          4.2200   -8.2542   -3.2725 C.ar      1 <0>        -0.0856
      2 C2          3.5223   -8.8969   -2.2652 C.ar      1 <0>        -0.1242
      3 C3          2.5325   -8.2300   -1.5734 C.ar      1 <0>        -0.0544
      4 C4          2.2355   -6.9037   -1.8916 C.ar      1 <0>        -0.1441
      5 C5          2.9395   -6.2628   -2.9125 C.ar      1 <0>        -0.0872
      6 C6          3.9305   -6.9396   -3.5929 C.ar      1 <0>        -0.1267
      7 C7          1.1759   -6.1830   -1.1549 C.2       1 <0>         0.5625
      8 O1          0.5610   -6.7452   -0.2697 O.2       1 <0>        -0.5088
      9 N1          0.8915   -4.9025   -1.4645 N.am      1 <0>        -0.6731
     10 C8         -0.1830   -4.2553   -0.8455 C.ar      1 <0>         0.1445
     11 C9         -1.3190   -4.9756   -0.4936 C.ar      1 <0>        -0.0875
     12 C10        -2.3836   -4.3411    0.1188 C.ar      1 <0>        -0.0991
     13 C11        -2.3267   -2.9882    0.3844 C.ar      1 <0>        -0.0734
     14 C12        -1.1903   -2.2552    0.0346 C.ar      1 <0>        -0.1416
     15 C13        -0.1174   -2.8952   -0.5881 C.ar      1 <0>        -0.1196
     16 C14        -1.1266   -0.8061    0.3173 C.2       1 <0>         0.4395
     17 O2         -2.1363   -0.1312    0.2627 O.2       1 <0>        -0.4222
     18 C15         0.1628   -0.1783    0.6660 C.ar      1 <0>        -0.0976
     19 C16         1.2940   -0.9800    0.8849 C.ar      1 <0>        -0.0876
     20 C17         2.4889   -0.4132    1.2071 C.ar      1 <0>        -0.0752
     21 C18         2.5960    0.9772    1.3219 C.ar      1 <0>        -0.1225
     22 C19         1.4686    1.7921    1.1042 C.ar      1 <0>         0.1241
     23 C20         0.2522    1.2065    0.7758 C.ar      1 <0>        -0.0501
     24 N2          1.8732    3.0919    1.2849 N.pl3     1 <0>        -0.4496
     25 H1          1.2878    3.8979    1.1970 H         1 <0>         0.4711
     26 N3          3.2328    3.1108    1.6112 N.2       1 <0>        -0.1563
     27 C21         3.7027    1.8842    1.6448 C.2       1 <0>         0.0665
     28 C22         5.0921    1.4904    1.9521 C.cat     1 <0>         0.4907
     29 N4          6.1091    2.3576    2.2509 N.pl3     1 <0>        -0.5207
     30 H2          6.0442    3.3543    2.2991 H         1 <0>         0.4748
     31 C23         7.2415    1.5978    2.4733 C.ar      1 <0>         0.0872
     32 C24         8.5542    1.9004    2.8072 C.ar      1 <0>        -0.0878
     33 C25         9.4724    0.8830    2.9614 C.ar      1 <0>        -0.0617
     34 C26         9.0925   -0.4401    2.7859 C.ar      1 <0>        -0.0750
     35 C27         7.8052   -0.7578    2.4576 C.ar      1 <0>        -0.0762
     36 C28         6.8564    0.2571    2.2954 C.ar      1 <0>         0.0556
     37 H3          4.9942   -8.7807   -3.8108 H         1 <0>         0.1318
     38 H4          3.7534   -9.9230   -2.0198 H         1 <0>         0.1349
     39 H5          1.9885   -8.7329   -0.7877 H         1 <0>         0.1390
     40 H6          2.7115   -5.2381   -3.1665 H         1 <0>         0.1241
     41 H7          4.4786   -6.4438   -4.3804 H         1 <0>         0.1318
     42 H8          1.4319   -4.4296   -2.1166 H         1 <0>         0.4116
     43 H9         -1.3697   -6.0346   -0.6992 H         1 <0>         0.1438
     44 H10        -3.2631   -4.9062    0.3900 H         1 <0>         0.1402
     45 H11        -3.1605   -2.4963    0.8630 H         1 <0>         0.1372
     46 H12         0.7622   -2.3330   -0.8650 H         1 <0>         0.1374
     47 H13         1.2158   -2.0536    0.7970 H         1 <0>         0.1604
     48 H14         3.3548   -1.0369    1.3737 H         1 <0>         0.1254
     49 H15        -0.6179    1.8224    0.6023 H         1 <0>         0.1580
     50 H16         8.8556    2.9284    2.9447 H         1 <0>         0.1560
     51 H17        10.4941    1.1176    3.2209 H         1 <0>         0.1594
     52 H18         9.8219   -1.2267    2.9106 H         1 <0>         0.1591
     53 H19         7.5203   -1.7909    2.3237 H         1 <0>         0.1554
     54 N5          5.5364    0.2562    1.9853 N.pl3     1 <0>        -0.4865
     55 H20         4.9713   -0.5817    1.8043 H         1 <0>         0.4726
@<TRIPOS>BOND
     1    1    6 ar
     2    1    2 ar
     3    1   37 1
     4    2    3 ar
     5    2   38 1
     6    3    4 ar
     7    3   39 1
     8    4    5 ar
     9    4    7 1
    10    5    6 ar
    11    5   40 1
    12    6   41 1
    13    7    8 2
    14    7    9 am
    15    9   10 1
    16    9   42 1
    17   10   15 ar
    18   10   11 ar
    19   11   12 ar
    20   11   43 1
    21   12   13 ar
    22   12   44 1
    23   13   14 ar
    24   13   45 1
    25   14   15 ar
    26   14   16 1
    27   15   46 1
    28   16   17 2
    29   16   18 1
    30   18   23 ar
    31   18   19 ar
    32   19   20 ar
    33   19   47 1
    34   20   21 ar
    35   20   48 1
    36   21   27 1
    37   21   22 ar
    38   22   23 ar
    39   22   24 1
    40   23   49 1
    41   24   25 1
    42   24   26 1
    43   26   27 2
    44   27   28 1
    45   28   29 1
    46   28   54 2
    47   29   30 1
    48   29   31 1
    49   31   36 ar
    50   31   32 ar
    51   32   33 ar
    52   32   50 1
    53   33   34 ar
    54   33   51 1
    55   34   35 ar
    56   34   52 1
    57   35   36 ar
    58   35   53 1
    59   36   54 1
    60   54   55 1
@<TRIPOS>MOLECULE
ZINC04617983
   70    74     0     0     0
SMALL
USER_CHARGES

@<TRIPOS>ATOM
      1 C1         -1.2063    3.5397   -0.0236 C.ar      1 <0>        -0.1205
      2 C2         -0.0119    4.2360    0.0357 C.ar      1 <0>        -0.0803
      3 C3          1.1905    3.5548    0.1006 C.ar      1 <0>        -0.0839
      4 C4          1.2059    2.1752    0.1060 C.ar      1 <0>        -0.0501
      5 C5          0.0048    1.4668    0.0463 C.ar      1 <0>        -0.1433
      6 C6         -1.2048    2.1604   -0.0238 C.ar      1 <0>        -0.0895
      7 C7          0.0137   -0.0113    0.0512 C.2       1 <0>         0.5674
      8 O1          1.0688   -0.6127    0.1073 O.2       1 <0>        -0.5085
      9 N1         -1.1479   -0.6924   -0.0065 N.am      1 <0>        -0.6742
     10 C8         -1.1363   -2.0892   -0.1119 C.ar      1 <0>         0.1720
     11 C9         -0.1239   -2.7237   -0.8201 C.ar      1 <0>        -0.0787
     12 C10        -0.1093   -4.1005   -0.9192 C.ar      1 <0>        -0.1210
     13 C11        -1.1136   -4.8506   -0.3206 C.ar      1 <0>         0.0938
     14 C12        -2.1288   -4.2157    0.3827 C.ar      1 <0>        -0.1280
     15 C13        -2.1399   -2.8389    0.4869 C.ar      1 <0>        -0.0966
     16 C14        -3.2182   -5.0293    1.0326 C.3       1 <0>         0.5213
     17 F1         -4.1752   -4.1710    1.5845 F         1 <0>        -0.1762
     18 F2         -3.8239   -5.8481    0.0735 F         1 <0>        -0.1709
     19 F3         -2.6667   -5.8243    2.0431 F         1 <0>        -0.1734
     20 N2         -1.1025   -6.2454   -0.4266 N.pl3     1 <0>        -0.5028
     21 C15        -1.1406   -6.6669   -1.8340 C.3       1 <0>         0.0284
     22 C16        -1.2074   -8.1944   -1.9046 C.3       1 <0>         0.0022
     23 C17        -0.0022   -8.3439    0.1891 C.3       1 <0>         0.0023
     24 C18         0.0647   -6.8165    0.2598 C.3       1 <0>         0.0272
     25 C19         2.4863    4.3214    0.1650 C.3       1 <0>        -0.0789
     26 C20         2.9993    4.5760   -1.2538 C.3       1 <0>        -0.0342
     27 C21         4.2952    5.3426   -1.1894 C.2       1 <0>        -0.2247
     28 C22         4.4323    6.6818   -1.2879 C.2       1 <0>         0.0645
     29 N3          5.7462    6.9774   -1.1800 N.pl3     1 <0>        -0.4731
     30 H1          6.1455    7.8937   -1.2113 H         1 <0>         0.4500
     31 N4          6.4525    5.7789   -1.0167 N.2       1 <0>        -0.2814
     32 C23         5.5822    4.7873   -1.0215 C.2       1 <0>         0.1063
     33 C24         5.8977    3.3544   -0.8771 C.2       1 <0>        -0.0742
     34 C25         7.1712    2.9598   -0.7233 C.2       1 <0>        -0.0788
     35 C26         7.4866    1.5271   -0.5790 C.ar      1 <0>        -0.1083
     36 C27         8.8122    1.1017   -0.4177 C.ar      1 <0>        -0.0616
     37 C28         9.0540   -0.2538   -0.2866 C.ar      1 <0>        -0.1687
     38 C29         7.9903   -1.1382   -0.3186 C.ar      1 <0>         0.0960
     39 N5          6.7520   -0.7098   -0.4717 N.ar      1 <0>        -0.4833
     40 C30         6.4689    0.5703   -0.5949 C.ar      1 <0>         0.1071
     41 H2         -2.1415    4.0775   -0.0741 H         1 <0>         0.1334
     42 H3         -0.0183    5.3159    0.0311 H         1 <0>         0.1317
     43 H4          2.1452    1.6446    0.1567 H         1 <0>         0.1377
     44 H5         -2.1374    1.6181   -0.0744 H         1 <0>         0.1241
     45 H6         -1.9919   -0.2154    0.0249 H         1 <0>         0.4176
     46 H7          0.6541   -2.1402   -1.2898 H         1 <0>         0.1515
     47 H8          0.6802   -4.5941   -1.4665 H         1 <0>         0.1354
     48 H9         -2.9295   -2.3451    1.0339 H         1 <0>         0.1518
     49 H10        -2.0202   -6.2417   -2.3173 H         1 <0>         0.1272
     50 H11        -0.2416   -6.3184   -2.3424 H         1 <0>         0.0690
     51 H12        -1.2065   -8.5105   -2.9477 H         1 <0>         0.1410
     52 H13        -2.1201   -8.5412   -1.4199 H         1 <0>         0.1414
     53 H14         0.8774   -8.7692    0.6725 H         1 <0>         0.1415
     54 H15        -0.9009   -8.6925    0.6979 H         1 <0>         0.1412
     55 H16         0.9773   -6.4697   -0.2249 H         1 <0>         0.0699
     56 H17         0.0640   -6.5000    1.3028 H         1 <0>         0.1274
     57 H18         2.3203    5.2742    0.6677 H         1 <0>         0.0778
     58 H19         3.2242    3.7417    0.7196 H         1 <0>         0.0776
     59 H20         3.1654    3.6232   -1.7565 H         1 <0>         0.0723
     60 H21         2.2614    5.1557   -1.8084 H         1 <0>         0.0727
     61 H22         3.6315    7.3929   -1.4269 H         1 <0>         0.1778
     62 H23         5.1039    2.6222   -0.8952 H         1 <0>         0.1335
     63 H24         7.9650    3.6920   -0.7052 H         1 <0>         0.1314
     64 H25         9.6239    1.8138   -0.3966 H         1 <0>         0.1388
     65 H26        10.0628   -0.6183   -0.1603 H         1 <0>         0.1385
     66 H27         8.1768   -2.1970   -0.2161 H         1 <0>         0.1555
     67 H28         5.4419    0.8827   -0.7139 H         1 <0>         0.1567
     68 N6         -0.0336   -8.7714   -1.2225 N.4       1 <0>        -0.5187
     69 H29         0.8220   -8.4528   -1.6922 H         1 <0>         0.4307
     70 H30        -0.0864   -9.7959   -1.2653 H         1 <0>         0.4400
@<TRIPOS>BOND
     1    1    6 ar
     2    1    2 ar
     3    1   41 1
     4    2    3 ar
     5    2   42 1
     6    3    4 ar
     7    3   25 1
     8    4    5 ar
     9    4   43 1
    10    5    6 ar
    11    5    7 1
    12    6   44 1
    13    7    8 2
    14    7    9 am
    15    9   10 1
    16    9   45 1
    17   10   15 ar
    18   10   11 ar
    19   11   12 ar
    20   11   46 1
    21   12   13 ar
    22   12   47 1
    23   13   14 ar
    24   13   20 1
    25   14   15 ar
    26   14   16 1
    27   15   48 1
    28   16   17 1
    29   16   18 1
    30   16   19 1
    31   20   24 1
    32   20   21 1
    33   21   22 1
    34   21   49 1
    35   21   50 1
    36   22   51 1
    37   22   52 1
    38   22   68 1
    39   23   24 1
    40   23   53 1
    41   23   54 1
    42   23   68 1
    43   24   55 1
    44   24   56 1
    45   25   26 1
    46   25   57 1
    47   25   58 1
    48   26   27 1
    49   26   59 1
    50   26   60 1
    51   27   32 1
    52   27   28 2
    53   28   29 1
    54   28   61 1
    55   29   30 1
    56   29   31 1
    57   31   32 2
    58   32   33 1
    59   33   34 2
    60   33   62 1
    61   34   35 1
    62   34   63 1
    63   35   40 ar
    64   35   36 ar
    65   36   37 ar
    66   36   64 1
    67   37   38 ar
    68   37   65 1
    69   38   39 ar
    70   38   66 1
    71   39   40 ar
    72   40   67 1
    73   68   69 1
    74   68   70 1
@<TRIPOS>MOLECULE
ZINC04617984
   48    51     0     0     0
SMALL
USER_CHARGES

@<TRIPOS>ATOM
      1 C1          3.6758    0.3573   -5.4712 C.3       1 <0>        -0.1741
      2 C2          3.6962    1.2170   -4.2336 C.2       1 <0>         0.5093
      3 O1          2.8936    2.1176   -4.1075 O.2       1 <0>        -0.5209
      4 N1          4.6063    0.9852   -3.2670 N.am      1 <0>        -0.6765
      5 C3          4.6890    1.8423   -2.1637 C.ar      1 <0>         0.1307
      6 C4          5.9251    2.1225   -1.5925 C.ar      1 <0>        -0.1138
      7 C5          6.0127    2.9687   -0.5028 C.ar      1 <0>        -0.1090
      8 C6          4.8744    3.5457    0.0220 C.ar      1 <0>        -0.0761
      9 C7          3.6270    3.2662   -0.5408 C.ar      1 <0>        -0.1417
     10 C8          3.5390    2.4116   -1.6411 C.ar      1 <0>        -0.0834
     11 C9          2.4054    3.8776    0.0228 C.2       1 <0>         0.4435
     12 O2          2.4750    4.9324    0.6233 O.2       1 <0>        -0.4406
     13 C10         1.1007    3.2077   -0.1434 C.ar      1 <0>        -0.1102
     14 C11         1.0520    1.8408   -0.4580 C.ar      1 <0>        -0.1196
     15 C12        -0.1451    1.2113   -0.6139 C.ar      1 <0>        -0.0478
     16 C13        -1.3372    1.9280   -0.4658 C.ar      1 <0>        -0.1381
     17 C14        -1.3017    3.2985   -0.1455 C.ar      1 <0>         0.1184
     18 C15        -0.0763    3.9344    0.0121 C.ar      1 <0>        -0.0745
     19 N2         -2.6045    3.7243   -0.0602 N.pl3     1 <0>        -0.5023
     20 H1         -2.8956    4.6574    0.1511 H         1 <0>         0.4509
     21 N3         -3.4600    2.6481   -0.3153 N.2       1 <0>        -0.2323
     22 C16        -2.7563    1.5637   -0.5574 C.2       1 <0>         0.1257
     23 C17        -3.2935    0.2296   -0.8691 C.2       1 <0>        -0.0902
     24 C18        -4.6223    0.0368   -0.9259 C.2       1 <0>        -0.0650
     25 C19        -5.1602   -1.2990   -1.2379 C.ar      1 <0>        -0.0653
     26 C20        -4.2916   -2.3665   -1.4810 C.ar      1 <0>        -0.1083
     27 C21        -4.8026   -3.6154   -1.7664 C.ar      1 <0>        -0.1199
     28 C22        -6.1714   -3.8100   -1.8244 C.ar      1 <0>        -0.1141
     29 C23        -7.0376   -2.7564   -1.5905 C.ar      1 <0>        -0.1205
     30 C24        -6.5415   -1.5033   -1.2979 C.ar      1 <0>        -0.1010
     31 H2          3.5019   -0.6811   -5.1894 H         1 <0>         0.0932
     32 H3          2.8776    0.6926   -6.1334 H         1 <0>         0.0981
     33 H4          4.6331    0.4387   -5.9859 H         1 <0>         0.0928
     34 H5          5.2040    0.2244   -3.3360 H         1 <0>         0.4142
     35 H6          6.8201    1.6773   -2.0012 H         1 <0>         0.1321
     36 H7          6.9759    3.1825   -0.0636 H         1 <0>         0.1361
     37 H8          4.9475    4.2098    0.8706 H         1 <0>         0.1352
     38 H9          2.5779    2.1954   -2.0837 H         1 <0>         0.1565
     39 H10         1.9701    1.2845   -0.5769 H         1 <0>         0.1391
     40 H11        -0.1743    0.1593   -0.8563 H         1 <0>         0.1347
     41 H12        -0.0373    4.9864    0.2535 H         1 <0>         0.1400
     42 H13        -2.6200   -0.5945   -1.0521 H         1 <0>         0.1390
     43 H14        -5.2959    0.8610   -0.7428 H         1 <0>         0.1298
     44 H15        -3.2231   -2.2150   -1.4408 H         1 <0>         0.1265
     45 H16        -4.1327   -4.4424   -1.9497 H         1 <0>         0.1249
     46 H17        -6.5657   -4.7891   -2.0531 H         1 <0>         0.1233
     47 H18        -8.1048   -2.9158   -1.6375 H         1 <0>         0.1250
     48 H19        -7.2187   -0.6820   -1.1152 H         1 <0>         0.1262
@<TRIPOS>BOND
     1    1    2 1
     2    1   31 1
     3    1   32 1
     4    1   33 1
     5    2    3 2
     6    2    4 am
     7    4    5 1
     8    4   34 1
     9    5   10 ar
    10    5    6 ar
    11    6    7 ar
    12    6   35 1
    13    7    8 ar
    14    7   36 1
    15    8    9 ar
    16    8   37 1
    17    9   10 ar
    18    9   11 1
    19   10   38 1
    20   11   12 2
    21   11   13 1
    22   13   18 ar
    23   13   14 ar
    24   14   15 ar
    25   14   39 1
    26   15   16 ar
    27   15   40 1
    28   16   22 1
    29   16   17 ar
    30   17   18 ar
    31   17   19 1
    32   18   41 1
    33   19   20 1
    34   19   21 1
    35   21   22 2
    36   22   23 1
    37   23   24 2
    38   23   42 1
    39   24   25 1
    40   24   43 1
    41   25   30 ar
    42   25   26 ar
    43   26   27 ar
    44   26   44 1
    45   27   28 ar
    46   27   45 1
    47   28   29 ar
    48   28   46 1
    49   29   30 ar
    50   29   47 1
    51   30   48 1
@<TRIPOS>MOLECULE
ZINC04617985
   38    42     0     0     0
SMALL
USER_CHARGES

@<TRIPOS>ATOM
      1 C1         -2.0335   12.6718    0.0860 C.ar      1 <0>        -0.0934
      2 C2         -3.0501   11.7271    0.0908 C.ar      1 <0>        -0.1262
      3 C3         -2.7609   10.3922    0.0814 C.ar      1 <0>        -0.0583
      4 C4         -1.4282    9.9677    0.0668 C.ar      1 <0>         0.0481
      5 C5         -0.3982   10.9251    0.0620 C.ar      1 <0>         0.0590
      6 C6         -0.7122   12.2769    0.0717 C.ar      1 <0>        -0.1131
      7 N1          0.7877   10.2163    0.0474 N.pl3     1 <0>        -0.5870
      8 H1          1.7100   10.6027    0.0408 H         1 <0>         0.4350
      9 C7          0.4639    8.8855    0.0437 C.2       1 <0>         0.3528
     10 N2         -0.8404    8.7467    0.0503 N.2       1 <0>        -0.4569
     11 C8          1.4363    7.7747    0.0283 C.2       1 <0>         0.1599
     12 C9          1.1168    6.3420    0.0240 C.ar      1 <0>        -0.1382
     13 C10        -0.0797    5.6192    0.0316 C.ar      1 <0>        -0.0219
     14 C11        -0.0521    4.2567    0.0187 C.ar      1 <0>        -0.1441
     15 C12         1.1687    3.5715    0.0096 C.ar      1 <0>         0.0076
     16 C13         2.3662    4.2724    0.0019 C.ar      1 <0>        -0.1311
     17 C14         2.3493    5.6633    0.0091 C.ar      1 <0>         0.1327
     18 N3          3.3334    6.6202    0.0047 N.pl3     1 <0>        -0.4943
     19 H2          4.3168    6.4389   -0.0054 H         1 <0>         0.4536
     20 N4          2.7446    7.8884    0.0166 N.2       1 <0>        -0.2265
     21 C15         1.1821    2.0881    0.0020 C.ar      1 <0>        -0.0198
     22 C16         2.3941    1.3998   -0.0137 C.ar      1 <0>        -0.1185
     23 C17         2.4020    0.0198   -0.0212 C.ar      1 <0>        -0.0876
     24 C18         1.2101   -0.6818   -0.0136 C.ar      1 <0>        -0.1496
     25 C19         0.0021   -0.0041    0.0020 C.ar      1 <0>         0.1029
     26 C20        -0.0167    1.3784    0.0096 C.ar      1 <0>        -0.1405
     27 F1         -1.1590   -0.6947    0.0094 F         1 <0>        -0.1364
     28 H3         -2.2788   13.7235    0.0936 H         1 <0>         0.1331
     29 H4         -4.0804   12.0508    0.1016 H         1 <0>         0.1328
     30 H5         -3.5600    9.6656    0.0848 H         1 <0>         0.1331
     31 H6          0.0748   13.0165    0.0684 H         1 <0>         0.1258
     32 H7         -1.0256    6.1403    0.0431 H         1 <0>         0.1463
     33 H8         -0.9785    3.7017    0.0198 H         1 <0>         0.1351
     34 H9          3.3063    3.7409   -0.0099 H         1 <0>         0.1353
     35 H10         3.3258    1.9458   -0.0197 H         1 <0>         0.1331
     36 H11         3.3411   -0.5135   -0.0334 H         1 <0>         0.1369
     37 H12         1.2213   -1.7617   -0.0202 H         1 <0>         0.1378
     38 H13        -0.9585    1.9069    0.0170 H         1 <0>         0.1424
@<TRIPOS>BOND
     1    1    6 ar
     2    1    2 ar
     3    1   28 1
     4    2    3 ar
     5    2   29 1
     6    3    4 ar
     7    3   30 1
     8    4   10 1
     9    4    5 ar
    10    5    6 ar
    11    5    7 1
    12    6   31 1
    13    7    8 1
    14    7    9 1
    15    9   10 2
    16    9   11 1
    17   11   20 2
    18   11   12 1
    19   12   17 ar
    20   12   13 ar
    21   13   14 ar
    22   13   32 1
    23   14   15 ar
    24   14   33 1
    25   15   16 ar
    26   15   21 1
    27   16   17 ar
    28   16   34 1
    29   17   18 1
    30   18   19 1
    31   18   20 1
    32   21   26 ar
    33   21   22 ar
    34   22   23 ar
    35   22   35 1
    36   23   24 ar
    37   23   36 1
    38   24   25 ar
    39   24   37 1
    40   25   26 ar
    41   25   27 1
    42   26   38 1
@<TRIPOS>MOLECULE
ZINC04617985
   38    42     0     0     0
SMALL
USER_CHARGES

@<TRIPOS>ATOM
      1 C1         -2.0335   12.6718    0.0860 C.ar      1 <0>        -0.0934
      2 C2         -3.0501   11.7271    0.0908 C.ar      1 <0>        -0.1262
      3 C3         -2.7609   10.3922    0.0814 C.ar      1 <0>        -0.0583
      4 C4         -1.4282    9.9677    0.0668 C.ar      1 <0>         0.0481
      5 C5         -0.3982   10.9251    0.0620 C.ar      1 <0>         0.0590
      6 C6         -0.7122   12.2769    0.0717 C.ar      1 <0>        -0.1131
      7 N1          0.7877   10.2163    0.0474 N.pl3     1 <0>        -0.5870
      8 H1          1.7100   10.6027    0.0408 H         1 <0>         0.4350
      9 C7          0.4639    8.8855    0.0437 C.2       1 <0>         0.3528
     10 N2         -0.8404    8.7467    0.0503 N.2       1 <0>        -0.4569
     11 C8          1.4363    7.7747    0.0283 C.2       1 <0>         0.1599
     12 C9          1.1168    6.3420    0.0240 C.ar      1 <0>        -0.1382
     13 C10        -0.0797    5.6192    0.0316 C.ar      1 <0>        -0.0219
     14 C11        -0.0521    4.2567    0.0187 C.ar      1 <0>        -0.1441
     15 C12         1.1687    3.5715    0.0096 C.ar      1 <0>         0.0076
     16 C13         2.3662    4.2724    0.0019 C.ar      1 <0>        -0.1311
     17 C14         2.3493    5.6633    0.0091 C.ar      1 <0>         0.1327
     18 N3          3.3334    6.6202    0.0047 N.pl3     1 <0>        -0.4943
     19 H2          4.3168    6.4389   -0.0054 H         1 <0>         0.4536
     20 N4          2.7446    7.8884    0.0166 N.2       1 <0>        -0.2265
     21 C15         1.1821    2.0881    0.0020 C.ar      1 <0>        -0.0198
     22 C16         2.3941    1.3998   -0.0137 C.ar      1 <0>        -0.1185
     23 C17         2.4020    0.0198   -0.0212 C.ar      1 <0>        -0.0876
     24 C18         1.2101   -0.6818   -0.0136 C.ar      1 <0>        -0.1496
     25 C19         0.0021   -0.0041    0.0020 C.ar      1 <0>         0.1029
     26 C20        -0.0167    1.3784    0.0096 C.ar      1 <0>        -0.1405
     27 F1         -1.1590   -0.6947    0.0094 F         1 <0>        -0.1364
     28 H3         -2.2788   13.7235    0.0936 H         1 <0>         0.1331
     29 H4         -4.0804   12.0508    0.1016 H         1 <0>         0.1328
     30 H5         -3.5600    9.6656    0.0848 H         1 <0>         0.1331
     31 H6          0.0748   13.0165    0.0684 H         1 <0>         0.1258
     32 H7         -1.0256    6.1403    0.0431 H         1 <0>         0.1463
     33 H8         -0.9785    3.7017    0.0198 H         1 <0>         0.1351
     34 H9          3.3063    3.7409   -0.0099 H         1 <0>         0.1353
     35 H10         3.3258    1.9458   -0.0197 H         1 <0>         0.1331
     36 H11         3.3411   -0.5135   -0.0334 H         1 <0>         0.1369
     37 H12         1.2213   -1.7617   -0.0202 H         1 <0>         0.1378
     38 H13        -0.9585    1.9069    0.0170 H         1 <0>         0.1424
@<TRIPOS>BOND
     1    1    6 ar
     2    1    2 ar
     3    1   28 1
     4    2    3 ar
     5    2   29 1
     6    3    4 ar
     7    3   30 1
     8    4   10 1
     9    4    5 ar
    10    5    6 ar
    11    5    7 1
    12    6   31 1
    13    7    8 1
    14    7    9 1
    15    9   10 2
    16    9   11 1
    17   11   20 2
    18   11   12 1
    19   12   17 ar
    20   12   13 ar
    21   13   14 ar
    22   13   32 1
    23   14   15 ar
    24   14   33 1
    25   15   16 ar
    26   15   21 1
    27   16   17 ar
    28   16   34 1
    29   17   18 1
    30   18   19 1
    31   18   20 1
    32   21   26 ar
    33   21   22 ar
    34   22   23 ar
    35   22   35 1
    36   23   24 ar
    37   23   36 1
    38   24   25 ar
    39   24   37 1
    40   25   26 ar
    41   25   27 1
    42   26   38 1
@<TRIPOS>MOLECULE
ZINC04617985
   39    43     0     0     0
SMALL
USER_CHARGES

@<TRIPOS>ATOM
      1 C1         -2.0335   12.6718    0.0860 C.ar      1 <0>        -0.0623
      2 C2         -3.0501   11.7271    0.0908 C.ar      1 <0>        -0.0756
      3 C3         -2.7609   10.3922    0.0814 C.ar      1 <0>        -0.0762
      4 C4         -1.4282    9.9677    0.0668 C.ar      1 <0>         0.0554
      5 C5         -0.3982   10.9251    0.0620 C.ar      1 <0>         0.0868
      6 C6         -0.7122   12.2769    0.0717 C.ar      1 <0>        -0.0881
      7 N1          0.7877   10.2163    0.0474 N.pl3     1 <0>        -0.5218
      8 H1          1.7100   10.6027    0.0408 H         1 <0>         0.4745
      9 C7          0.4639    8.8855    0.0437 C.cat     1 <0>         0.4919
     10 C8          1.4363    7.7747    0.0283 C.2       1 <0>         0.0714
     11 C9          1.1168    6.3420    0.0240 C.ar      1 <0>        -0.1480
     12 C10        -0.0797    5.6192    0.0316 C.ar      1 <0>        -0.0605
     13 C11        -0.0521    4.2567    0.0187 C.ar      1 <0>        -0.1079
     14 C12         1.1687    3.5715    0.0096 C.ar      1 <0>         0.0256
     15 C13         2.3662    4.2724    0.0019 C.ar      1 <0>        -0.1116
     16 C14         2.3493    5.6633    0.0091 C.ar      1 <0>         0.1408
     17 N2          3.3334    6.6202    0.0047 N.pl3     1 <0>        -0.4561
     18 H2          4.3168    6.4389   -0.0054 H         1 <0>         0.4685
     19 N3          2.7446    7.8884    0.0166 N.2       1 <0>        -0.1656
     20 C15         1.1821    2.0881    0.0020 C.ar      1 <0>        -0.0406
     21 C16         2.3941    1.3998   -0.0137 C.ar      1 <0>        -0.1116
     22 C17         2.4020    0.0198   -0.0212 C.ar      1 <0>        -0.0849
     23 C18         1.2101   -0.6818   -0.0136 C.ar      1 <0>        -0.1369
     24 C19         0.0021   -0.0041    0.0020 C.ar      1 <0>         0.1059
     25 C20        -0.0167    1.3784    0.0096 C.ar      1 <0>        -0.1366
     26 F1         -1.1590   -0.6947    0.0094 F         1 <0>        -0.1318
     27 H3         -2.2788   13.7235    0.0936 H         1 <0>         0.1591
     28 H4         -4.0804   12.0508    0.1016 H         1 <0>         0.1589
     29 H5         -3.5600    9.6656    0.0848 H         1 <0>         0.1553
     30 H6          0.0748   13.0165    0.0684 H         1 <0>         0.1556
     31 H7         -1.0256    6.1403    0.0431 H         1 <0>         0.1223
     32 H8         -0.9785    3.7017    0.0198 H         1 <0>         0.1473
     33 H9          3.3063    3.7409   -0.0099 H         1 <0>         0.1488
     34 H10         3.3258    1.9458   -0.0197 H         1 <0>         0.1345
     35 H11         3.3411   -0.5135   -0.0334 H         1 <0>         0.1421
     36 H12         1.2213   -1.7617   -0.0202 H         1 <0>         0.1435
     37 H13        -0.9585    1.9069    0.0170 H         1 <0>         0.1417
     38 N4         -0.8409    8.7458    0.0503 N.pl3     1 <0>        -0.4867
     39 H14        -1.3404    7.8488    0.0439 H         1 <0>         0.4729
@<TRIPOS>BOND
     1    1    6 ar
     2    1    2 ar
     3    1   27 1
     4    2    3 ar
     5    2   28 1
     6    3    4 ar
     7    3   29 1
     8    4    5 ar
     9    4   38 1
    10    5    6 ar
    11    5    7 1
    12    6   30 1
    13    7    8 1
    14    7    9 1
    15    9   10 1
    16    9   38 2
    17   10   19 2
    18   10   11 1
    19   11   16 ar
    20   11   12 ar
    21   12   13 ar
    22   12   31 1
    23   13   14 ar
    24   13   32 1
    25   14   15 ar
    26   14   20 1
    27   15   16 ar
    28   15   33 1
    29   16   17 1
    30   17   18 1
    31   17   19 1
    32   20   25 ar
    33   20   21 ar
    34   21   22 ar
    35   21   34 1
    36   22   23 ar
    37   22   35 1
    38   23   24 ar
    39   23   36 1
    40   24   25 ar
    41   24   26 1
    42   25   37 1
    43   38   39 1
@<TRIPOS>MOLECULE
ZINC04617986
   39    43     0     0     0
SMALL
USER_CHARGES

@<TRIPOS>ATOM
      1 C1          2.8932   14.5101    0.0585 C.ar      1 <0>        -0.0937
      2 C2          3.9335   13.5918    0.0431 C.ar      1 <0>        -0.1263
      3 C3          3.6785   12.2499    0.0375 C.ar      1 <0>        -0.0583
      4 C4          2.3570   11.7914    0.0474 C.ar      1 <0>         0.0482
      5 C5          1.3030   12.7221    0.0630 C.ar      1 <0>         0.0587
      6 C6          1.5824   14.0815    0.0688 C.ar      1 <0>        -0.1130
      7 N1          0.1355   11.9831    0.0697 N.pl3     1 <0>        -0.5871
      8 H1         -0.7964   12.3457    0.0807 H         1 <0>         0.4350
      9 C7          0.4932   10.6611    0.0585 C.2       1 <0>         0.3535
     10 N2          1.8006   10.5557    0.0510 N.2       1 <0>        -0.4570
     11 C8         -0.4505    9.5258    0.0607 C.2       1 <0>         0.1596
     12 C9         -0.0947    8.1018    0.0488 C.ar      1 <0>        -0.1401
     13 C10         1.1199    7.4098    0.0342 C.ar      1 <0>        -0.0223
     14 C11         1.1271    6.0470    0.0306 C.ar      1 <0>        -0.1452
     15 C12        -0.0758    5.3308    0.0319 C.ar      1 <0>         0.0107
     16 C13        -1.2908    6.0008    0.0471 C.ar      1 <0>        -0.1345
     17 C14        -1.3094    7.3917    0.0557 C.ar      1 <0>         0.1334
     18 N3         -2.3176    8.3230    0.0706 N.pl3     1 <0>        -0.4948
     19 H2         -3.2960    8.1165    0.0784 H         1 <0>         0.4533
     20 N4         -1.7613    9.6060    0.0732 N.2       1 <0>        -0.2275
     21 C15        -0.0513    3.8476    0.0232 C.ar      1 <0>        -0.0337
     22 C16        -1.2457    3.1286    0.0308 C.ar      1 <0>        -0.1160
     23 C17        -1.2203    1.7487    0.0174 C.ar      1 <0>        -0.1011
     24 C18        -0.0126    1.0758    0.0080 C.ar      1 <0>        -0.1400
     25 C19         1.1810    1.7841    0.0004 C.ar      1 <0>         0.1080
     26 C20         1.1649    3.1693    0.0080 C.ar      1 <0>        -0.1298
     27 O1          2.3659    1.1185   -0.0141 O.3       1 <0>        -0.4981
     28 H3          3.1116   15.5678    0.0623 H         1 <0>         0.1331
     29 H4          4.9552   13.9418    0.0358 H         1 <0>         0.1327
     30 H5          4.4958   11.5440    0.0259 H         1 <0>         0.1330
     31 H6          0.7768   14.8007    0.0804 H         1 <0>         0.1258
     32 H7          2.0522    7.9550    0.0289 H         1 <0>         0.1456
     33 H8          2.0674    5.5158    0.0232 H         1 <0>         0.1345
     34 H9         -2.2170    5.4454    0.0526 H         1 <0>         0.1343
     35 H10        -2.1907    3.6513    0.0426 H         1 <0>         0.1288
     36 H11        -2.1464    1.1930    0.0184 H         1 <0>         0.1309
     37 H12         0.0021   -0.0041    0.0020 H         1 <0>         0.1307
     38 H13         2.0929    3.7217    0.0017 H         1 <0>         0.1360
     39 H14         2.7005    0.9304   -0.9016 H         1 <0>         0.3930
@<TRIPOS>BOND
     1    1    6 ar
     2    1    2 ar
     3    1   28 1
     4    2    3 ar
     5    2   29 1
     6    3    4 ar
     7    3   30 1
     8    4   10 1
     9    4    5 ar
    10    5    6 ar
    11    5    7 1
    12    6   31 1
    13    7    8 1
    14    7    9 1
    15    9   10 2
    16    9   11 1
    17   11   20 2
    18   11   12 1
    19   12   17 ar
    20   12   13 ar
    21   13   14 ar
    22   13   32 1
    23   14   15 ar
    24   14   33 1
    25   15   16 ar
    26   15   21 1
    27   16   17 ar
    28   16   34 1
    29   17   18 1
    30   18   19 1
    31   18   20 1
    32   21   26 ar
    33   21   22 ar
    34   22   23 ar
    35   22   35 1
    36   23   24 ar
    37   23   36 1
    38   24   25 ar
    39   24   37 1
    40   25   26 ar
    41   25   27 1
    42   26   38 1
    43   27   39 1
@<TRIPOS>MOLECULE
ZINC04617986
   39    43     0     0     0
SMALL
USER_CHARGES

@<TRIPOS>ATOM
      1 C1          2.8932   14.5101    0.0585 C.ar      1 <0>        -0.0937
      2 C2          3.9335   13.5918    0.0431 C.ar      1 <0>        -0.1263
      3 C3          3.6785   12.2499    0.0375 C.ar      1 <0>        -0.0583
      4 C4          2.3570   11.7914    0.0474 C.ar      1 <0>         0.0482
      5 C5          1.3030   12.7221    0.0630 C.ar      1 <0>         0.0587
      6 C6          1.5824   14.0815    0.0688 C.ar      1 <0>        -0.1130
      7 N1          0.1355   11.9831    0.0697 N.pl3     1 <0>        -0.5871
      8 H1         -0.7964   12.3457    0.0807 H         1 <0>         0.4350
      9 C7          0.4932   10.6611    0.0585 C.2       1 <0>         0.3535
     10 N2          1.8006   10.5557    0.0510 N.2       1 <0>        -0.4570
     11 C8         -0.4505    9.5258    0.0607 C.2       1 <0>         0.1596
     12 C9         -0.0947    8.1018    0.0488 C.ar      1 <0>        -0.1401
     13 C10         1.1199    7.4098    0.0342 C.ar      1 <0>        -0.0223
     14 C11         1.1271    6.0470    0.0306 C.ar      1 <0>        -0.1452
     15 C12        -0.0758    5.3308    0.0319 C.ar      1 <0>         0.0107
     16 C13        -1.2908    6.0008    0.0471 C.ar      1 <0>        -0.1345
     17 C14        -1.3094    7.3917    0.0557 C.ar      1 <0>         0.1334
     18 N3         -2.3176    8.3230    0.0706 N.pl3     1 <0>        -0.4948
     19 H2         -3.2960    8.1165    0.0784 H         1 <0>         0.4533
     20 N4         -1.7613    9.6060    0.0732 N.2       1 <0>        -0.2275
     21 C15        -0.0513    3.8476    0.0232 C.ar      1 <0>        -0.0337
     22 C16        -1.2457    3.1286    0.0308 C.ar      1 <0>        -0.1160
     23 C17        -1.2203    1.7487    0.0174 C.ar      1 <0>        -0.1011
     24 C18        -0.0126    1.0758    0.0080 C.ar      1 <0>        -0.1400
     25 C19         1.1810    1.7841    0.0004 C.ar      1 <0>         0.1080
     26 C20         1.1649    3.1693    0.0080 C.ar      1 <0>        -0.1298
     27 O1          2.3659    1.1185   -0.0141 O.3       1 <0>        -0.4981
     28 H3          3.1116   15.5678    0.0623 H         1 <0>         0.1331
     29 H4          4.9552   13.9418    0.0358 H         1 <0>         0.1327
     30 H5          4.4958   11.5440    0.0259 H         1 <0>         0.1330
     31 H6          0.7768   14.8007    0.0804 H         1 <0>         0.1258
     32 H7          2.0522    7.9550    0.0289 H         1 <0>         0.1456
     33 H8          2.0674    5.5158    0.0232 H         1 <0>         0.1345
     34 H9         -2.2170    5.4454    0.0526 H         1 <0>         0.1343
     35 H10        -2.1907    3.6513    0.0426 H         1 <0>         0.1288
     36 H11        -2.1464    1.1930    0.0184 H         1 <0>         0.1309
     37 H12         0.0021   -0.0041    0.0020 H         1 <0>         0.1307
     38 H13         2.0929    3.7217    0.0017 H         1 <0>         0.1360
     39 H14         2.7005    0.9304   -0.9016 H         1 <0>         0.3930
@<TRIPOS>BOND
     1    1    6 ar
     2    1    2 ar
     3    1   28 1
     4    2    3 ar
     5    2   29 1
     6    3    4 ar
     7    3   30 1
     8    4   10 1
     9    4    5 ar
    10    5    6 ar
    11    5    7 1
    12    6   31 1
    13    7    8 1
    14    7    9 1
    15    9   10 2
    16    9   11 1
    17   11   20 2
    18   11   12 1
    19   12   17 ar
    20   12   13 ar
    21   13   14 ar
    22   13   32 1
    23   14   15 ar
    24   14   33 1
    25   15   16 ar
    26   15   21 1
    27   16   17 ar
    28   16   34 1
    29   17   18 1
    30   18   19 1
    31   18   20 1
    32   21   26 ar
    33   21   22 ar
    34   22   23 ar
    35   22   35 1
    36   23   24 ar
    37   23   36 1
    38   24   25 ar
    39   24   37 1
    40   25   26 ar
    41   25   27 1
    42   26   38 1
    43   27   39 1
@<TRIPOS>MOLECULE
ZINC04617986
   40    44     0     0     0
SMALL
USER_CHARGES

@<TRIPOS>ATOM
      1 C1          2.8932   14.5101    0.0585 C.ar      1 <0>        -0.0625
      2 C2          3.9335   13.5918    0.0431 C.ar      1 <0>        -0.0757
      3 C3          3.6785   12.2499    0.0375 C.ar      1 <0>        -0.0762
      4 C4          2.3570   11.7914    0.0474 C.ar      1 <0>         0.0553
      5 C5          1.3030   12.7221    0.0630 C.ar      1 <0>         0.0867
      6 C6          1.5824   14.0815    0.0688 C.ar      1 <0>        -0.0881
      7 N1          0.1355   11.9831    0.0697 N.pl3     1 <0>        -0.5221
      8 H1         -0.7964   12.3457    0.0807 H         1 <0>         0.4745
      9 C7          0.4932   10.6611    0.0585 C.cat     1 <0>         0.4926
     10 C8         -0.4505    9.5258    0.0607 C.2       1 <0>         0.0711
     11 C9         -0.0947    8.1018    0.0488 C.ar      1 <0>        -0.1498
     12 C10         1.1199    7.4098    0.0342 C.ar      1 <0>        -0.0610
     13 C11         1.1271    6.0470    0.0306 C.ar      1 <0>        -0.1089
     14 C12        -0.0758    5.3308    0.0319 C.ar      1 <0>         0.0286
     15 C13        -1.2908    6.0008    0.0471 C.ar      1 <0>        -0.1152
     16 C14        -1.3094    7.3917    0.0557 C.ar      1 <0>         0.1415
     17 N2         -2.3176    8.3230    0.0706 N.pl3     1 <0>        -0.4565
     18 H2         -3.2960    8.1165    0.0784 H         1 <0>         0.4682
     19 N3         -1.7613    9.6060    0.0732 N.2       1 <0>        -0.1666
     20 C15        -0.0513    3.8476    0.0232 C.ar      1 <0>        -0.0544
     21 C16        -1.2457    3.1286    0.0308 C.ar      1 <0>        -0.1093
     22 C17        -1.2203    1.7487    0.0174 C.ar      1 <0>        -0.0984
     23 C18        -0.0126    1.0758    0.0080 C.ar      1 <0>        -0.1277
     24 C19         1.1810    1.7841    0.0004 C.ar      1 <0>         0.1114
     25 C20         1.1649    3.1693    0.0080 C.ar      1 <0>        -0.1262
     26 O1          2.3659    1.1185   -0.0141 O.3       1 <0>        -0.4963
     27 H3          3.1116   15.5678    0.0623 H         1 <0>         0.1590
     28 H4          4.9552   13.9418    0.0358 H         1 <0>         0.1588
     29 H5          4.4958   11.5440    0.0259 H         1 <0>         0.1552
     30 H6          0.7768   14.8007    0.0804 H         1 <0>         0.1556
     31 H7          2.0522    7.9550    0.0289 H         1 <0>         0.1216
     32 H8          2.0674    5.5158    0.0232 H         1 <0>         0.1468
     33 H9         -2.2170    5.4454    0.0526 H         1 <0>         0.1479
     34 H10        -2.1907    3.6513    0.0426 H         1 <0>         0.1301
     35 H11        -2.1464    1.1930    0.0184 H         1 <0>         0.1361
     36 H12         0.0021   -0.0041    0.0020 H         1 <0>         0.1364
     37 H13         2.0929    3.7217    0.0017 H         1 <0>         0.1351
     38 H14         2.7005    0.9304   -0.9016 H         1 <0>         0.3966
     39 N4          1.8011   10.5548    0.0510 N.pl3     1 <0>        -0.4869
     40 H15         2.3234    9.6708    0.0483 H         1 <0>         0.4729
@<TRIPOS>BOND
     1    1    6 ar
     2    1    2 ar
     3    1   27 1
     4    2    3 ar
     5    2   28 1
     6    3    4 ar
     7    3   29 1
     8    4    5 ar
     9    4   39 1
    10    5    6 ar
    11    5    7 1
    12    6   30 1
    13    7    8 1
    14    7    9 1
    15    9   10 1
    16    9   39 2
    17   10   19 2
    18   10   11 1
    19   11   16 ar
    20   11   12 ar
    21   12   13 ar
    22   12   31 1
    23   13   14 ar
    24   13   32 1
    25   14   15 ar
    26   14   20 1
    27   15   16 ar
    28   15   33 1
    29   16   17 1
    30   17   18 1
    31   17   19 1
    32   20   25 ar
    33   20   21 ar
    34   21   22 ar
    35   21   34 1
    36   22   23 ar
    37   22   35 1
    38   23   24 ar
    39   23   36 1
    40   24   25 ar
    41   24   26 1
    42   25   37 1
    43   26   38 1
    44   39   40 1
@<TRIPOS>MOLECULE
ZINC04617987
   40    43     0     0     0
SMALL
USER_CHARGES

@<TRIPOS>ATOM
      1 C1          1.9968   13.1211    0.7926 C.ar      1 <0>        -0.1143
      2 C2          0.6448   13.4019    0.8828 C.ar      1 <0>        -0.1206
      3 C3         -0.2796   12.3793    0.8421 C.ar      1 <0>        -0.1013
      4 C4          0.1521   11.0567    0.7094 C.ar      1 <0>        -0.0653
      5 C5          1.5195   10.7804    0.6247 C.ar      1 <0>        -0.1085
      6 C6          2.4318   11.8140    0.6611 C.ar      1 <0>        -0.1199
      7 C7         -0.8292    9.9585    0.6651 C.2       1 <0>        -0.0652
      8 C8         -0.4105    8.6878    0.5373 C.2       1 <0>        -0.0907
      9 C9         -1.3904    7.5912    0.4931 C.2       1 <0>         0.1385
     10 C10        -1.0874    6.1599    0.3575 C.ar      1 <0>        -0.1937
     11 C11         0.0971    5.4299    0.2378 C.ar      1 <0>        -0.0003
     12 C12         0.0499    4.0708    0.1260 C.ar      1 <0>        -0.2224
     13 C13        -1.1733    3.4019    0.1307 C.ar      1 <0>         0.1722
     14 C14        -2.3566    4.1057    0.2424 C.ar      1 <0>        -0.1798
     15 C15        -2.3254    5.4927    0.3626 C.ar      1 <0>         0.1663
     16 N1         -3.2977    6.4523    0.4916 N.pl3     1 <0>        -0.5056
     17 H1         -4.2817    6.2776    0.5256 H         1 <0>         0.4494
     18 N2         -2.6970    7.7127    0.5680 N.2       1 <0>        -0.2451
     19 O1         -1.2019    2.0479    0.0189 O.3       1 <0>        -0.2536
     20 C16        -0.0179    1.3815    0.0331 C.ar      1 <0>         0.0836
     21 C17         0.4236    0.7246   -1.1067 C.ar      1 <0>        -0.1202
     22 C18         1.6246    0.0423   -1.0876 C.ar      1 <0>        -0.1029
     23 C19         2.3872    0.0147    0.0654 C.ar      1 <0>        -0.1190
     24 C20         1.9498    0.6688    1.2024 C.ar      1 <0>        -0.1034
     25 C21         0.7492    1.3518    1.1890 C.ar      1 <0>        -0.1373
     26 H2          2.7161   13.9261    0.8248 H         1 <0>         0.1233
     27 H3          0.3127   14.4245    0.9857 H         1 <0>         0.1249
     28 H4         -1.3345   12.6000    0.9123 H         1 <0>         0.1262
     29 H5          1.8606    9.7603    0.5268 H         1 <0>         0.1266
     30 H6          3.4886   11.6024    0.5912 H         1 <0>         0.1249
     31 H7         -1.8851   10.1747    0.7352 H         1 <0>         0.1299
     32 H8          0.6454    8.4716    0.4672 H         1 <0>         0.1381
     33 H9          1.0489    5.9403    0.2333 H         1 <0>         0.1338
     34 H10         0.9675    3.5087    0.0335 H         1 <0>         0.1360
     35 H11        -3.3013    3.5823    0.2411 H         1 <0>         0.1377
     36 H12        -0.1717    0.7458   -2.0075 H         1 <0>         0.1333
     37 H13         1.9683   -0.4698   -1.9742 H         1 <0>         0.1328
     38 H14         3.3260   -0.5191    0.0781 H         1 <0>         0.1294
     39 H15         2.5472    0.6454    2.1018 H         1 <0>         0.1311
     40 H16         0.4077    1.8620    2.0775 H         1 <0>         0.1309
@<TRIPOS>BOND
     1    1    6 ar
     2    1    2 ar
     3    1   26 1
     4    2    3 ar
     5    2   27 1
     6    3    4 ar
     7    3   28 1
     8    4    5 ar
     9    4    7 1
    10    5    6 ar
    11    5   29 1
    12    6   30 1
    13    7    8 2
    14    7   31 1
    15    8    9 1
    16    8   32 1
    17    9   18 2
    18    9   10 1
    19   10   15 ar
    20   10   11 ar
    21   11   12 ar
    22   11   33 1
    23   12   13 ar
    24   12   34 1
    25   13   14 ar
    26   13   19 1
    27   14   15 ar
    28   14   35 1
    29   15   16 1
    30   16   17 1
    31   16   18 1
    32   19   20 1
    33   20   25 ar
    34   20   21 ar
    35   21   22 ar
    36   21   36 1
    37   22   23 ar
    38   22   37 1
    39   23   24 ar
    40   23   38 1
    41   24   25 ar
    42   24   39 1
    43   25   40 1
@<TRIPOS>MOLECULE
ZINC04617988
   47    50     0     0     0
SMALL
USER_CHARGES

@<TRIPOS>ATOM
      1 C1          5.1410    0.5453   -0.0073 C.ar      1 <0>        -0.1092
      2 C2          4.1335   -0.4022    0.0237 C.ar      1 <0>        -0.1155
      3 C3          2.8116   -0.0074    0.0455 C.ar      1 <0>        -0.1097
      4 C4          2.4921    1.3505    0.0358 C.ar      1 <0>        -0.0346
      5 C5          3.5125    2.3010   -0.0017 C.ar      1 <0>        -0.0874
      6 C6          4.8307    1.8935   -0.0170 C.ar      1 <0>        -0.1146
      7 C7          1.0764    1.7808    0.0591 C.2       1 <0>         0.1375
      8 C8          0.6232    3.0690    0.0533 C.2       1 <0>        -0.2457
      9 C9         -0.7766    3.0304    0.0825 C.2       1 <0>         0.3017
     10 N1         -1.1571    1.7741    0.0990 N.2       1 <0>        -0.3088
     11 N2         -0.0145    0.9641    0.0912 N.pl3     1 <0>        -0.4666
     12 H1         -0.0013   -0.0357    0.1065 H         1 <0>         0.4482
     13 N3         -1.6268    4.1440    0.0869 N.am      1 <0>        -0.6307
     14 C10        -1.1084    5.3878    0.0616 C.2       1 <0>         0.5864
     15 O1          0.0975    5.5435    0.0349 O.2       1 <0>        -0.5274
     16 C11        -2.0029    6.5594    0.0662 C.ar      1 <0>        -0.2298
     17 C12        -3.3867    6.3879   -0.0269 C.ar      1 <0>        -0.0325
     18 C13        -4.2172    7.4868   -0.0216 C.ar      1 <0>        -0.1885
     19 C14        -3.6881    8.7642    0.0762 C.ar      1 <0>        -0.0337
     20 C15        -2.3242    8.9503    0.1688 C.ar      1 <0>        -0.2114
     21 C16        -1.4706    7.8539    0.1699 C.ar      1 <0>         0.2840
     22 N4         -0.0976    8.0383    0.2684 N.pl3     1 <0>        -0.7212
     23 C17         0.4469    9.3791    0.4966 C.3       1 <0>         0.1556
     24 C18         1.9507    9.3059    0.5634 C.ar      1 <0>        -0.0618
     25 C19         2.5983    9.1017    1.7722 C.ar      1 <0>        -0.1528
     26 C20         3.9786    9.0360    1.7940 C.ar      1 <0>         0.0993
     27 N5          4.6781    9.1745    0.6848 N.ar      1 <0>        -0.4789
     28 C21         4.0962    9.3746   -0.4816 C.ar      1 <0>         0.0991
     29 C22         2.7197    9.4470   -0.5817 C.ar      1 <0>        -0.1531
     30 H2          6.1742    0.2313   -0.0235 H         1 <0>         0.1270
     31 H3          4.3822   -1.4532    0.0312 H         1 <0>         0.1281
     32 H4          2.0260   -0.7480    0.0704 H         1 <0>         0.1193
     33 H5          3.2713    3.3537   -0.0143 H         1 <0>         0.1315
     34 H6          5.6217    2.6284   -0.0416 H         1 <0>         0.1299
     35 H7          1.2349    3.9587    0.0297 H         1 <0>         0.1755
     36 H8         -2.5886    4.0198    0.1082 H         1 <0>         0.4170
     37 H9         -3.8044    5.3948   -0.1025 H         1 <0>         0.1246
     38 H10        -5.2864    7.3524   -0.0936 H         1 <0>         0.1275
     39 H11        -4.3478    9.6193    0.0802 H         1 <0>         0.1283
     40 H12        -1.9200    9.9489    0.2446 H         1 <0>         0.1297
     41 H13         0.5008    7.2794    0.1861 H         1 <0>         0.4211
     42 H14         0.1511   10.0355   -0.3218 H         1 <0>         0.0765
     43 H15         0.0602    9.7732    1.4364 H         1 <0>         0.0764
     44 H16         2.0311    8.9920    2.6847 H         1 <0>         0.1364
     45 H17         4.4905    8.8738    2.7311 H         1 <0>         0.1583
     46 H18         4.7023    9.4834   -1.3688 H         1 <0>         0.1584
     47 H19         2.2490    9.6117   -1.5396 H         1 <0>         0.1367
@<TRIPOS>BOND
     1    1    6 ar
     2    1    2 ar
     3    1   30 1
     4    2    3 ar
     5    2   31 1
     6    3    4 ar
     7    3   32 1
     8    4    5 ar
     9    4    7 1
    10    5    6 ar
    11    5   33 1
    12    6   34 1
    13    7   11 1
    14    7    8 2
    15    8    9 1
    16    8   35 1
    17    9   10 2
    18    9   13 1
    19   10   11 1
    20   11   12 1
    21   13   14 am
    22   13   36 1
    23   14   15 2
    24   14   16 1
    25   16   21 ar
    26   16   17 ar
    27   17   18 ar
    28   17   37 1
    29   18   19 ar
    30   18   38 1
    31   19   20 ar
    32   19   39 1
    33   20   21 ar
    34   20   40 1
    35   21   22 1
    36   22   23 1
    37   22   41 1
    38   23   24 1
    39   23   42 1
    40   23   43 1
    41   24   29 ar
    42   24   25 ar
    43   25   26 ar
    44   25   44 1
    45   26   27 ar
    46   26   45 1
    47   27   28 ar
    48   28   29 ar
    49   28   46 1
    50   29   47 1
@<TRIPOS>MOLECULE
ZINC04617988
   47    50     0     0     0
SMALL
USER_CHARGES

@<TRIPOS>ATOM
      1 C1          5.1410    0.5453   -0.0073 C.ar      1 <0>        -0.1092
      2 C2          4.1335   -0.4022    0.0237 C.ar      1 <0>        -0.1155
      3 C3          2.8116   -0.0074    0.0455 C.ar      1 <0>        -0.1097
      4 C4          2.4921    1.3505    0.0358 C.ar      1 <0>        -0.0346
      5 C5          3.5125    2.3010   -0.0017 C.ar      1 <0>        -0.0874
      6 C6          4.8307    1.8935   -0.0170 C.ar      1 <0>        -0.1146
      7 C7          1.0764    1.7808    0.0591 C.2       1 <0>         0.1375
      8 C8          0.6232    3.0690    0.0533 C.2       1 <0>        -0.2457
      9 C9         -0.7766    3.0304    0.0825 C.2       1 <0>         0.3017
     10 N1         -1.1571    1.7741    0.0990 N.2       1 <0>        -0.3088
     11 N2         -0.0145    0.9641    0.0912 N.pl3     1 <0>        -0.4666
     12 H1         -0.0013   -0.0357    0.1065 H         1 <0>         0.4482
     13 N3         -1.6268    4.1440    0.0869 N.am      1 <0>        -0.6307
     14 C10        -1.1084    5.3878    0.0616 C.2       1 <0>         0.5864
     15 O1          0.0975    5.5435    0.0349 O.2       1 <0>        -0.5274
     16 C11        -2.0029    6.5594    0.0662 C.ar      1 <0>        -0.2298
     17 C12        -3.3867    6.3879   -0.0269 C.ar      1 <0>        -0.0325
     18 C13        -4.2172    7.4868   -0.0216 C.ar      1 <0>        -0.1885
     19 C14        -3.6881    8.7642    0.0762 C.ar      1 <0>        -0.0337
     20 C15        -2.3242    8.9503    0.1688 C.ar      1 <0>        -0.2114
     21 C16        -1.4706    7.8539    0.1699 C.ar      1 <0>         0.2840
     22 N4         -0.0976    8.0383    0.2684 N.pl3     1 <0>        -0.7212
     23 C17         0.4469    9.3791    0.4966 C.3       1 <0>         0.1556
     24 C18         1.9507    9.3059    0.5634 C.ar      1 <0>        -0.0618
     25 C19         2.5983    9.1017    1.7722 C.ar      1 <0>        -0.1528
     26 C20         3.9786    9.0360    1.7940 C.ar      1 <0>         0.0993
     27 N5          4.6781    9.1745    0.6848 N.ar      1 <0>        -0.4789
     28 C21         4.0962    9.3746   -0.4816 C.ar      1 <0>         0.0991
     29 C22         2.7197    9.4470   -0.5817 C.ar      1 <0>        -0.1531
     30 H2          6.1742    0.2313   -0.0235 H         1 <0>         0.1270
     31 H3          4.3822   -1.4532    0.0312 H         1 <0>         0.1281
     32 H4          2.0260   -0.7480    0.0704 H         1 <0>         0.1193
     33 H5          3.2713    3.3537   -0.0143 H         1 <0>         0.1315
     34 H6          5.6217    2.6284   -0.0416 H         1 <0>         0.1299
     35 H7          1.2349    3.9587    0.0297 H         1 <0>         0.1755
     36 H8         -2.5886    4.0198    0.1082 H         1 <0>         0.4170
     37 H9         -3.8044    5.3948   -0.1025 H         1 <0>         0.1246
     38 H10        -5.2864    7.3524   -0.0936 H         1 <0>         0.1275
     39 H11        -4.3478    9.6193    0.0802 H         1 <0>         0.1283
     40 H12        -1.9200    9.9489    0.2446 H         1 <0>         0.1297
     41 H13         0.5008    7.2794    0.1861 H         1 <0>         0.4211
     42 H14         0.1511   10.0355   -0.3218 H         1 <0>         0.0765
     43 H15         0.0602    9.7732    1.4364 H         1 <0>         0.0764
     44 H16         2.0311    8.9920    2.6847 H         1 <0>         0.1364
     45 H17         4.4905    8.8738    2.7311 H         1 <0>         0.1583
     46 H18         4.7023    9.4834   -1.3688 H         1 <0>         0.1584
     47 H19         2.2490    9.6117   -1.5396 H         1 <0>         0.1367
@<TRIPOS>BOND
     1    1    6 ar
     2    1    2 ar
     3    1   30 1
     4    2    3 ar
     5    2   31 1
     6    3    4 ar
     7    3   32 1
     8    4    5 ar
     9    4    7 1
    10    5    6 ar
    11    5   33 1
    12    6   34 1
    13    7   11 1
    14    7    8 2
    15    8    9 1
    16    8   35 1
    17    9   10 2
    18    9   13 1
    19   10   11 1
    20   11   12 1
    21   13   14 am
    22   13   36 1
    23   14   15 2
    24   14   16 1
    25   16   21 ar
    26   16   17 ar
    27   17   18 ar
    28   17   37 1
    29   18   19 ar
    30   18   38 1
    31   19   20 ar
    32   19   39 1
    33   20   21 ar
    34   20   40 1
    35   21   22 1
    36   22   23 1
    37   22   41 1
    38   23   24 1
    39   23   42 1
    40   23   43 1
    41   24   29 ar
    42   24   25 ar
    43   25   26 ar
    44   25   44 1
    45   26   27 ar
    46   26   45 1
    47   27   28 ar
    48   28   29 ar
    49   28   46 1
    50   29   47 1
@<TRIPOS>MOLECULE
ZINC04617989
   28    30     0     0     0
SMALL
USER_CHARGES

@<TRIPOS>ATOM
      1 C1          3.4526    3.1779   -0.6634 C.ar      1 <0>        -0.1406
      2 C2          3.4735    2.1145    0.2205 C.ar      1 <0>        -0.0911
      3 C3          2.3267    1.3789    0.4455 C.ar      1 <0>        -0.1518
      4 C4          1.1509    1.7082   -0.2174 C.ar      1 <0>         0.1743
      5 C5          1.1348    2.7738   -1.1088 C.ar      1 <0>        -0.1533
      6 C6          2.2842    3.5081   -1.3253 C.ar      1 <0>        -0.0903
      7 N1         -0.0111    0.9658    0.0074 N.pl3     1 <0>        -0.6662
      8 C7         -1.2508    1.5999    0.0202 C.2       1 <0>         0.3563
      9 C8         -1.4657    2.9411   -0.0321 C.2       1 <0>        -0.3104
     10 C9         -2.8577    3.1553    0.0045 C.2       1 <0>         0.1808
     11 N2         -3.4512    1.9811    0.0762 N.2       1 <0>        -0.2735
     12 N3         -2.4632    0.9884    0.0815 N.pl3     1 <0>        -0.4936
     13 H1         -2.6220    0.0020    0.1231 H         1 <0>         0.4464
     14 C10        -3.5352    4.4698   -0.0318 C.2       1 <0>        -0.0870
     15 C11        -4.8742    4.7511   -0.0000 C.2       1 <0>        -0.1270
     16 C12        -5.2757    6.0688   -0.0456 C.2       1 <0>        -0.1588
     17 C13        -4.3351    7.0444   -0.1204 C.2       1 <0>        -0.1707
     18 S1         -2.8185    6.1026   -0.1207 S.3       1 <0>         0.0832
     19 H2          4.3510    3.7515   -0.8375 H         1 <0>         0.1248
     20 H3          4.3879    1.8589    0.7353 H         1 <0>         0.1273
     21 H4          2.3438    0.5484    1.1356 H         1 <0>         0.1249
     22 H5          0.2237    3.0297   -1.6291 H         1 <0>         0.1336
     23 H6          2.2715    4.3387   -2.0155 H         1 <0>         0.1279
     24 H7          0.0453    0.0081    0.1505 H         1 <0>         0.4122
     25 H8         -0.7053    3.7057   -0.0915 H         1 <0>         0.1563
     26 H9         -5.6024    3.9557    0.0593 H         1 <0>         0.1388
     27 H10        -6.3254    6.3218   -0.0225 H         1 <0>         0.1379
     28 H11        -4.4693    8.1152   -0.1633 H         1 <0>         0.1897
@<TRIPOS>BOND
     1    1    6 ar
     2    1    2 ar
     3    1   19 1
     4    2    3 ar
     5    2   20 1
     6    3    4 ar
     7    3   21 1
     8    4    5 ar
     9    4    7 1
    10    5    6 ar
    11    5   22 1
    12    6   23 1
    13    7    8 1
    14    7   24 1
    15    8   12 1
    16    8    9 2
    17    9   10 1
    18    9   25 1
    19   10   11 2
    20   10   14 1
    21   11   12 1
    22   12   13 1
    23   14   18 1
    24   14   15 2
    25   15   16 1
    26   15   26 1
    27   16   17 2
    28   16   27 1
    29   17   18 1
    30   17   28 1
@<TRIPOS>MOLECULE
ZINC04617989
   28    30     0     0     0
SMALL
USER_CHARGES

@<TRIPOS>ATOM
      1 C1          3.4526    3.1779   -0.6634 C.ar      1 <0>        -0.1406
      2 C2          3.4735    2.1145    0.2205 C.ar      1 <0>        -0.0911
      3 C3          2.3267    1.3789    0.4455 C.ar      1 <0>        -0.1518
      4 C4          1.1509    1.7082   -0.2174 C.ar      1 <0>         0.1743
      5 C5          1.1348    2.7738   -1.1088 C.ar      1 <0>        -0.1533
      6 C6          2.2842    3.5081   -1.3253 C.ar      1 <0>        -0.0903
      7 N1         -0.0111    0.9658    0.0074 N.pl3     1 <0>        -0.6662
      8 C7         -1.2508    1.5999    0.0202 C.2       1 <0>         0.3563
      9 C8         -1.4657    2.9411   -0.0321 C.2       1 <0>        -0.3104
     10 C9         -2.8577    3.1553    0.0045 C.2       1 <0>         0.1808
     11 N2         -3.4512    1.9811    0.0762 N.2       1 <0>        -0.2735
     12 N3         -2.4632    0.9884    0.0815 N.pl3     1 <0>        -0.4936
     13 H1         -2.6220    0.0020    0.1231 H         1 <0>         0.4464
     14 C10        -3.5352    4.4698   -0.0318 C.2       1 <0>        -0.0870
     15 C11        -4.8742    4.7511   -0.0000 C.2       1 <0>        -0.1270
     16 C12        -5.2757    6.0688   -0.0456 C.2       1 <0>        -0.1588
     17 C13        -4.3351    7.0444   -0.1204 C.2       1 <0>        -0.1707
     18 S1         -2.8185    6.1026   -0.1207 S.3       1 <0>         0.0832
     19 H2          4.3510    3.7515   -0.8375 H         1 <0>         0.1248
     20 H3          4.3879    1.8589    0.7353 H         1 <0>         0.1273
     21 H4          2.3438    0.5484    1.1356 H         1 <0>         0.1249
     22 H5          0.2237    3.0297   -1.6291 H         1 <0>         0.1336
     23 H6          2.2715    4.3387   -2.0155 H         1 <0>         0.1279
     24 H7          0.0453    0.0081    0.1505 H         1 <0>         0.4122
     25 H8         -0.7053    3.7057   -0.0915 H         1 <0>         0.1563
     26 H9         -5.6024    3.9557    0.0593 H         1 <0>         0.1388
     27 H10        -6.3254    6.3218   -0.0225 H         1 <0>         0.1379
     28 H11        -4.4693    8.1152   -0.1633 H         1 <0>         0.1897
@<TRIPOS>BOND
     1    1    6 ar
     2    1    2 ar
     3    1   19 1
     4    2    3 ar
     5    2   20 1
     6    3    4 ar
     7    3   21 1
     8    4    5 ar
     9    4    7 1
    10    5    6 ar
    11    5   22 1
    12    6   23 1
    13    7    8 1
    14    7   24 1
    15    8   12 1
    16    8    9 2
    17    9   10 1
    18    9   25 1
    19   10   11 2
    20   10   14 1
    21   11   12 1
    22   12   13 1
    23   14   18 1
    24   14   15 2
    25   15   16 1
    26   15   26 1
    27   16   17 2
    28   16   27 1
    29   17   18 1
    30   17   28 1
@<TRIPOS>MOLECULE
ZINC04617990
   52    55     0     0     0
SMALL
USER_CHARGES

@<TRIPOS>ATOM
      1 C1         -4.6909    6.2795    1.9305 C.3       1 <0>        -0.0784
      2 C2         -3.4599    6.3902    1.0682 C.2       1 <0>         0.1030
      3 C3         -2.3513    5.5093    1.0948 C.ar      1 <0>        -0.1927
      4 C4         -2.0477    4.3633    1.8422 C.ar      1 <0>        -0.0174
      5 C5         -0.8696    3.7103    1.6375 C.ar      1 <0>        -0.1803
      6 C6          0.0440    4.1725    0.6882 C.ar      1 <0>         0.2049
      7 C7         -0.2349    5.3006   -0.0610 C.ar      1 <0>        -0.1445
      8 C8         -1.4340    5.9787    0.1352 C.ar      1 <0>         0.1506
      9 N1         -1.9946    7.0964   -0.4288 N.pl3     1 <0>        -0.5088
     10 H1         -1.5856    7.6598   -1.1467 H         1 <0>         0.4468
     11 N2         -3.2392    7.3110    0.1757 N.2       1 <0>        -0.2560
     12 N3          1.2478    3.4895    0.4930 N.pl3     1 <0>        -0.6469
     13 C9          2.3970    4.1909    0.1627 C.ar      1 <0>         0.4653
     14 C10         3.5785    3.5115   -0.1433 C.ar      1 <0>        -0.3218
     15 C11         4.6975    4.2513   -0.4722 C.ar      1 <0>         0.2126
     16 N4          4.6216    5.5741   -0.4773 N.ar      1 <0>        -0.5813
     17 C12         3.4889    6.1925   -0.1775 C.ar      1 <0>         0.5935
     18 N5          2.3922    5.5197    0.1379 N.ar      1 <0>        -0.6001
     19 N6          3.4504    7.5768   -0.1946 N.pl3     1 <0>        -0.6356
     20 C13         4.6251    8.3072   -0.4115 C.ar      1 <0>         0.2426
     21 C14         5.8372    7.8302    0.0686 C.ar      1 <0>        -0.2265
     22 C15         7.0013    8.5503   -0.1499 C.ar      1 <0>         0.1691
     23 C16         6.9531    9.7556   -0.8402 C.ar      1 <0>         0.0102
     24 C17         5.7385   10.2350   -1.3158 C.ar      1 <0>         0.1706
     25 C18         4.5762    9.5109   -1.1015 C.ar      1 <0>        -0.2645
     26 O1          5.6903   11.4145   -1.9910 O.3       1 <0>        -0.2992
     27 C19         4.4082   11.8468   -2.4508 C.3       1 <0>         0.0244
     28 O2          8.0955   10.4662   -1.0507 O.3       1 <0>        -0.3106
     29 C20         8.4556   11.4257   -0.0548 C.3       1 <0>         0.0345
     30 O3          8.1894    8.0804    0.3159 O.3       1 <0>        -0.2993
     31 C21         8.1647    6.8351    1.0165 C.3       1 <0>         0.0260
     32 H2         -4.5392    6.8387    2.8537 H         1 <0>         0.0824
     33 H3         -5.5477    6.6881    1.3948 H         1 <0>         0.0784
     34 H4         -4.8760    5.2316    2.1667 H         1 <0>         0.0812
     35 H5         -2.7469    3.9982    2.5800 H         1 <0>         0.1328
     36 H6         -0.6396    2.8277    2.2160 H         1 <0>         0.1301
     37 H7          0.4725    5.6512   -0.7980 H         1 <0>         0.1363
     38 H8          1.2790    2.5247    0.5887 H         1 <0>         0.4261
     39 H9          3.6150    2.4323   -0.1274 H         1 <0>         0.1462
     40 H10         5.6256    3.7569   -0.7184 H         1 <0>         0.1724
     41 H11         2.6096    8.0403   -0.0563 H         1 <0>         0.4238
     42 H12         5.8739    6.8958    0.6089 H         1 <0>         0.1501
     43 H13         3.6322    9.8833   -1.4711 H         1 <0>         0.1364
     44 H14         4.5111   12.7987   -2.9719 H         1 <0>         0.1038
     45 H15         3.9965   11.1023   -3.1322 H         1 <0>         0.0576
     46 H16         3.7391   11.9693   -1.5992 H         1 <0>         0.0566
     47 H17         7.6623   12.1674    0.0387 H         1 <0>         0.0430
     48 H18         8.5962   10.9216    0.9013 H         1 <0>         0.0433
     49 H19         9.3828   11.9199   -0.3449 H         1 <0>         0.0916
     50 H20         7.7790    6.0559    0.3591 H         1 <0>         0.0623
     51 H21         9.1751    6.5762    1.3330 H         1 <0>         0.1020
     52 H22         7.5212    6.9235    1.8919 H         1 <0>         0.0532
@<TRIPOS>BOND
     1    1    2 1
     2    1   32 1
     3    1   33 1
     4    1   34 1
     5    2   11 2
     6    2    3 1
     7    3    8 ar
     8    3    4 ar
     9    4    5 ar
    10    4   35 1
    11    5    6 ar
    12    5   36 1
    13    6    7 ar
    14    6   12 1
    15    7    8 ar
    16    7   37 1
    17    8    9 1
    18    9   10 1
    19    9   11 1
    20   12   13 1
    21   12   38 1
    22   13   18 ar
    23   13   14 ar
    24   14   15 ar
    25   14   39 1
    26   15   16 ar
    27   15   40 1
    28   16   17 ar
    29   17   18 ar
    30   17   19 1
    31   19   20 1
    32   19   41 1
    33   20   25 ar
    34   20   21 ar
    35   21   22 ar
    36   21   42 1
    37   22   23 ar
    38   22   30 1
    39   23   24 ar
    40   23   28 1
    41   24   25 ar
    42   24   26 1
    43   25   43 1
    44   26   27 1
    45   27   44 1
    46   27   45 1
    47   27   46 1
    48   28   29 1
    49   29   47 1
    50   29   48 1
    51   29   49 1
    52   30   31 1
    53   31   50 1
    54   31   51 1
    55   31   52 1
@<TRIPOS>MOLECULE
ZINC04632547
   44    46     0     0     0
SMALL
USER_CHARGES

@<TRIPOS>ATOM
      1 C1          3.4775    6.8548    2.9746 C.3       1 <0>         0.0263
      2 O1          3.3347    5.4341    2.9170 O.3       1 <0>        -0.3172
      3 C2          2.2060    4.9509    2.3361 C.ar      1 <0>         0.1310
      4 C3          2.0055    3.5789    2.2480 C.ar      1 <0>        -0.1516
      5 C4          0.8624    3.0839    1.6598 C.ar      1 <0>        -0.0593
      6 C5         -0.0971    3.9649    1.1510 C.ar      1 <0>        -0.0995
      7 C6          0.1118    5.3449    1.2373 C.ar      1 <0>        -0.0679
      8 C7          1.2559    5.8302    1.8317 C.ar      1 <0>        -0.2099
      9 C8         -1.3204    3.4411    0.5209 C.2       1 <0>        -0.0999
     10 C9         -1.2710    2.3110   -0.2072 C.2       1 <0>        -0.1075
     11 C10         0.0273    1.7049   -0.5366 C.ar      1 <0>         0.0151
     12 C11         1.0936    2.5070   -0.9504 C.ar      1 <0>        -0.1068
     13 C12         2.3067    1.9321   -1.2638 C.ar      1 <0>        -0.0857
     14 C13         2.4797    0.5596   -1.1714 C.ar      1 <0>        -0.1265
     15 C14         1.4410   -0.2511   -0.7647 C.ar      1 <0>        -0.0846
     16 C15         0.2039    0.3085   -0.4428 C.ar      1 <0>        -0.1449
     17 C16        -0.9102   -0.5533   -0.0074 C.2       1 <0>         0.5631
     18 O2         -2.0114   -0.0737    0.1833 O.2       1 <0>        -0.5075
     19 N1         -0.7084   -1.8728    0.1793 N.am      1 <0>        -0.6708
     20 C17        -1.7844   -2.7061    0.5024 C.ar      1 <0>         0.1501
     21 C18        -2.8087   -2.2365    1.3143 C.ar      1 <0>        -0.1076
     22 C19        -3.8730   -3.0593    1.6267 C.ar      1 <0>        -0.0906
     23 C20        -3.9133   -4.3548    1.1415 C.ar      1 <0>        -0.0493
     24 C21        -2.8912   -4.8271    0.3370 C.ar      1 <0>        -0.0908
     25 C22        -1.8276   -4.0065    0.0165 C.ar      1 <0>        -0.1327
     26 Cl1        -5.2487   -5.3890    1.5424 Cl        1 <0>        -0.0688
     27 H1          2.6504    7.2803    3.5429 H         1 <0>         0.0564
     28 H2          4.4199    7.1058    3.4614 H         1 <0>         0.1011
     29 H3          3.4711    7.2619    1.9635 H         1 <0>         0.0563
     30 H4          2.7469    2.8994    2.6416 H         1 <0>         0.1295
     31 H5          0.7076    2.0173    1.5915 H         1 <0>         0.1271
     32 H6         -0.6244    6.0292    0.8421 H         1 <0>         0.1277
     33 H7          1.4164    6.8959    1.9022 H         1 <0>         0.1290
     34 H8         -2.2573    3.9641    0.6433 H         1 <0>         0.1288
     35 H9         -2.1851    1.8490   -0.5497 H         1 <0>         0.1483
     36 H10         0.9675    3.5770   -1.0251 H         1 <0>         0.1321
     37 H11         3.1286    2.5555   -1.5836 H         1 <0>         0.1290
     38 H12         3.4354    0.1221   -1.4195 H         1 <0>         0.1304
     39 H13         1.5849   -1.3192   -0.6956 H         1 <0>         0.1258
     40 H14         0.1831   -2.2445    0.0896 H         1 <0>         0.4118
     41 H15        -2.7754   -1.2272    1.6971 H         1 <0>         0.1489
     42 H16        -4.6721   -2.6931    2.2540 H         1 <0>         0.1376
     43 H17        -2.9254   -5.8383   -0.0409 H         1 <0>         0.1383
     44 H18        -1.0304   -4.3755   -0.6117 H         1 <0>         0.1356
@<TRIPOS>BOND
     1    1    2 1
     2    1   27 1
     3    1   28 1
     4    1   29 1
     5    2    3 1
     6    3    8 ar
     7    3    4 ar
     8    4    5 ar
     9    4   30 1
    10    5    6 ar
    11    5   31 1
    12    6    7 ar
    13    6    9 1
    14    7    8 ar
    15    7   32 1
    16    8   33 1
    17    9   10 2
    18    9   34 1
    19   10   11 1
    20   10   35 1
    21   11   16 ar
    22   11   12 ar
    23   12   13 ar
    24   12   36 1
    25   13   14 ar
    26   13   37 1
    27   14   15 ar
    28   14   38 1
    29   15   16 ar
    30   15   39 1
    31   16   17 1
    32   17   18 2
    33   17   19 am
    34   19   20 1
    35   19   40 1
    36   20   25 ar
    37   20   21 ar
    38   21   22 ar
    39   21   41 1
    40   22   23 ar
    41   22   42 1
    42   23   24 ar
    43   23   26 1
    44   24   25 ar
    45   24   43 1
    46   25   44 1
